
     RDKit          3D

 41 44  0  0  0  0  0  0  0  0999 V2000
   -5.1499    0.6950    0.0370 C   0  0  0  0  0  0  0  0  0  0  0  0
   -4.5816    0.7020   -1.2515 C   0  0  0  0  0  0  0  0  0  0  0  0
   -4.3299    0.8704    1.1686 C   0  0  0  0  0  0  0  0  0  0  0  0
    7.6224   -2.2322    0.9150 C   0  0  0  0  0  0  0  0  0  0  0  0
   -3.1940    0.8853   -1.4089 C   0  0  0  0  0  0  0  0  0  0  0  0
   -2.9423    1.0545    1.0115 C   0  0  0  0  0  0  0  0  0  0  0  0
    8.0827   -3.3839    0.2497 C   0  0  0  0  0  0  0  0  0  0  0  0
    6.2773   -1.8349    0.7923 C   0  0  0  0  0  0  0  0  0  0  0  0
    5.8492   -3.7443   -0.6624 C   0  0  0  0  0  0  0  0  0  0  0  0
    1.9176   -2.4954   -0.4039 C   0  0  0  0  0  0  0  0  0  0  0  0
    3.2579    1.3168    0.0708 C   0  0  0  0  0  0  0  0  0  0  0  0
    2.0961   -1.0835   -0.2717 C   0  0  0  0  0  0  0  0  0  0  0  0
   -2.3696    1.0667   -0.2787 C   0  0  0  0  0  0  0  0  0  0  0  0
    7.1966   -4.1424   -0.5419 C   0  0  0  0  0  0  0  0  0  0  0  0
    5.3781   -2.5896    0.0055 C   0  0  0  0  0  0  0  0  0  0  0  0
    3.4913   -0.9009   -0.0831 C   0  0  0  0  0  0  0  0  0  0  0  0
    1.3091    0.0937   -0.2743 C   0  0  0  0  0  0  0  0  0  0  0  0
    7.6833   -5.3816   -1.2645 C   0  0  0  0  0  0  0  0  0  0  0  0
   -0.8735    1.2714   -0.4555 C   0  0  0  0  0  0  0  0  0  0  0  0
    3.0581   -3.1362   -0.3102 N   0  0  0  0  0  0  0  0  0  0  0  0
    4.1211    0.2972    0.1030 N   0  0  0  0  0  0  0  0  0  0  0  0
    1.9332    1.2871   -0.1077 N   0  0  0  0  0  0  0  0  0  0  0  0
    4.0229   -2.1885   -0.1255 N   0  0  0  0  0  0  0  0  0  0  0  0
   -0.0812    0.0467   -0.4562 N   0  0  0  0  0  0  0  0  0  0  0  0
   -6.2141    0.5548    0.1572 H   0  0  0  0  0  0  0  0  0  0  0  0
   -5.2098    0.5676   -2.1196 H   0  0  0  0  0  0  0  0  0  0  0  0
   -4.7651    0.8636    2.1572 H   0  0  0  0  0  0  0  0  0  0  0  0
    8.3032   -1.6497    1.5182 H   0  0  0  0  0  0  0  0  0  0  0  0
   -2.7657    0.8929   -2.4007 H   0  0  0  0  0  0  0  0  0  0  0  0
   -2.3192    1.1887    1.8836 H   0  0  0  0  0  0  0  0  0  0  0  0
    9.1169   -3.6797    0.3483 H   0  0  0  0  0  0  0  0  0  0  0  0
    5.9485   -0.9406    1.2999 H   0  0  0  0  0  0  0  0  0  0  0  0
    5.1775   -4.3351   -1.2685 H   0  0  0  0  0  0  0  0  0  0  0  0
    1.0044   -3.0505   -0.5589 H   0  0  0  0  0  0  0  0  0  0  0  0
    3.6886    2.2979    0.2053 H   0  0  0  0  0  0  0  0  0  0  0  0
    7.5730   -6.2732   -0.6463 H   0  0  0  0  0  0  0  0  0  0  0  0
    8.7369   -5.2772   -1.5249 H   0  0  0  0  0  0  0  0  0  0  0  0
    7.1151   -5.5316   -2.1827 H   0  0  0  0  0  0  0  0  0  0  0  0
   -0.4954    1.9400    0.3190 H   0  0  0  0  0  0  0  0  0  0  0  0
   -0.7109    1.7810   -1.4053 H   0  0  0  0  0  0  0  0  0  0  0  0
   -0.5602   -0.8220   -0.2687 H   0  0  0  0  0  0  0  0  0  0  0  0
  1  2  2  0
  1  3  1  0
  2  5  1  0
  3  6  2  0
  4  7  2  0
  4  8  1  0
  5 13  2  0
  6 13  1  0
  7 14  1  0
  8 15  2  0
  9 14  2  0
  9 15  1  0
 10 12  1  0
 10 20  2  0
 11 21  2  0
 11 22  1  0
 12 16  2  0
 12 17  1  0
 13 19  1  0
 14 18  1  0
 15 23  1  0
 16 21  1  0
 16 23  1  0
 17 22  2  0
 17 24  1  0
 19 24  1  0
 20 23  1  0
  1 25  1  0
  2 26  1  0
  3 27  1  0
  4 28  1  0
  5 29  1  0
  6 30  1  0
  7 31  1  0
  8 32  1  0
  9 33  1  0
 10 34  1  0
 11 35  1  0
 18 36  1  0
 18 37  1  0
 18 38  1  0
 19 39  1  0
 19 40  1  0
 24 41  1  0
M  END
