methyl hexanoate
     RDKit          3D

 23 22  0  0  0  0  0  0  0  0999 V2000
    0.0401    1.0640    0.1435 C   0  0  0  0  0  0  0  0  0  0  0  0
   -0.1604    1.4356    1.6042 C   0  0  0  0  0  0  0  0  0  0  0  0
    0.9236    0.8238    2.4919 C   0  0  0  0  0  0  0  0  0  0  0  0
    0.7154    1.2021    3.9617 C   0  0  0  0  0  0  0  0  0  0  0  0
    1.7849    0.6046    4.8759 C   0  0  0  0  0  0  0  0  0  0  0  0
    1.5949    0.9681    6.3320 C   0  0  0  0  0  0  0  0  0  0  0  0
    0.6915    1.6656    6.7723 O   0  0  0  0  0  0  0  0  0  0  0  0
    2.6094    0.4176    7.0627 O   0  0  0  0  0  0  0  0  0  0  0  0
    2.5835    0.7017    8.4652 C   0  0  0  0  0  0  0  0  0  0  0  0
   -0.7401    1.5061   -0.4843 H   0  0  0  0  0  0  0  0  0  0  0  0
    1.0123    1.4120   -0.2199 H   0  0  0  0  0  0  0  0  0  0  0  0
    0.0006   -0.0227    0.0202 H   0  0  0  0  0  0  0  0  0  0  0  0
   -1.1480    1.0895    1.9306 H   0  0  0  0  0  0  0  0  0  0  0  0
   -0.1501    2.5273    1.7021 H   0  0  0  0  0  0  0  0  0  0  0  0
    0.9135   -0.2663    2.3780 H   0  0  0  0  0  0  0  0  0  0  0  0
    1.9090    1.1730    2.1600 H   0  0  0  0  0  0  0  0  0  0  0  0
    0.7515    2.2945    4.0546 H   0  0  0  0  0  0  0  0  0  0  0  0
   -0.2825    0.8871    4.2894 H   0  0  0  0  0  0  0  0  0  0  0  0
    1.7882   -0.4867    4.7759 H   0  0  0  0  0  0  0  0  0  0  0  0
    2.7677    0.9842    4.5740 H   0  0  0  0  0  0  0  0  0  0  0  0
    3.4336    0.2137    8.9366 H   0  0  0  0  0  0  0  0  0  0  0  0
    1.6474    0.3336    8.8795 H   0  0  0  0  0  0  0  0  0  0  0  0
    2.6519    1.7794    8.5952 H   0  0  0  0  0  0  0  0  0  0  0  0
  1  2  1  0
  2  3  1  0
  3  4  1  0
  4  5  1  0
  5  6  1  0
  6  7  2  0
  6  8  1  0
  8  9  1  0
  1 10  1  0
  1 11  1  0
  1 12  1  0
  2 13  1  0
  2 14  1  0
  3 15  1  0
  3 16  1  0
  4 17  1  0
  4 18  1  0
  5 19  1  0
  5 20  1  0
  9 21  1  0
  9 22  1  0
  9 23  1  0
M  END
>  <_TriposChargeType>  (1) 
USER_CHARGES

>  <solvdG>  (1) 
-2.49

>  <fdG>  (1) 
-3.3

>  <fname>  (1) 
mobley_1017962

>  <cname>  (1) 
 methyl hexanoate

>  <dataset>  (1) 
FreeSolv

$$$$
butan-1-ol
     RDKit          3D

 15 14  0  0  0  0  0  0  0  0999 V2000
    0.3902   -1.0212   -0.0846 C   0  0  0  0  0  0  0  0  0  0  0  0
   -0.5795   -2.0238    0.5201 C   0  0  0  0  0  0  0  0  0  0  0  0
   -1.9307   -1.9925   -0.1885 C   0  0  0  0  0  0  0  0  0  0  0  0
   -2.9047   -2.9950    0.4140 C   0  0  0  0  0  0  0  0  0  0  0  0
   -4.1377   -2.9158   -0.2877 O   0  0  0  0  0  0  0  0  0  0  0  0
    1.3562   -1.0504    0.4294 H   0  0  0  0  0  0  0  0  0  0  0  0
    0.5590   -1.2299   -1.1459 H   0  0  0  0  0  0  0  0  0  0  0  0
   -0.0104   -0.0065    0.0025 H   0  0  0  0  0  0  0  0  0  0  0  0
   -0.1467   -3.0287    0.4522 H   0  0  0  0  0  0  0  0  0  0  0  0
   -0.7117   -1.7988    1.5848 H   0  0  0  0  0  0  0  0  0  0  0  0
   -2.3650   -0.9865   -0.1342 H   0  0  0  0  0  0  0  0  0  0  0  0
   -1.8040   -2.2065   -1.2572 H   0  0  0  0  0  0  0  0  0  0  0  0
   -2.5191   -4.0157    0.3260 H   0  0  0  0  0  0  0  0  0  0  0  0
   -3.0903   -2.7736    1.4699 H   0  0  0  0  0  0  0  0  0  0  0  0
   -4.7343   -3.5648    0.1194 H   0  0  0  0  0  0  0  0  0  0  0  0
  1  2  1  0
  2  3  1  0
  3  4  1  0
  4  5  1  0
  1  6  1  0
  1  7  1  0
  1  8  1  0
  2  9  1  0
  2 10  1  0
  3 11  1  0
  3 12  1  0
  4 13  1  0
  4 14  1  0
  5 15  1  0
M  END
>  <_TriposChargeType>  (2) 
USER_CHARGES

>  <solvdG>  (2) 
-4.72

>  <fdG>  (2) 
-3.23

>  <fname>  (2) 
mobley_1019269

>  <cname>  (2) 
 butan-1-ol

>  <dataset>  (2) 
FreeSolv

$$$$
1,2,3,4-tetrachloro-5-(3,4-dichlorophenyl)benzene
     RDKit          3D

 22 23  0  0  0  0  0  0  0  0999 V2000
    1.8851   -1.0363   -0.1124 C   0  0  0  0  0  0  0  0  0  0  0  0
    2.9210   -1.6309    0.6081 C   0  0  0  0  0  0  0  0  0  0  0  0
    2.8783   -1.6520    2.0022 C   0  0  0  0  0  0  0  0  0  0  0  0
    1.7997   -1.0786    2.6757 C   0  0  0  0  0  0  0  0  0  0  0  0
    0.7638   -0.4841    1.9551 C   0  0  0  0  0  0  0  0  0  0  0  0
    0.8066   -0.4630    0.5610 C   0  0  0  0  0  0  0  0  0  0  0  0
   -0.2670    0.1541   -0.1873 C   0  0  0  0  0  0  0  0  0  0  0  0
   -0.1522    1.5114   -0.4878 C   0  0  0  0  0  0  0  0  0  0  0  0
   -1.1596    2.1541   -1.2073 C   0  0  0  0  0  0  0  0  0  0  0  0
   -2.2819    1.4395   -1.6263 C   0  0  0  0  0  0  0  0  0  0  0  0
   -2.3967    0.0822   -1.3258 C   0  0  0  0  0  0  0  0  0  0  0  0
   -1.3893   -0.5604   -0.6062 C   0  0  0  0  0  0  0  0  0  0  0  0
   -1.5142   -2.2534   -0.2165 Cl  0  0  0  0  0  0  0  0  0  0  0  0
   -3.7979   -0.8117   -1.8474 Cl  0  0  0  0  0  0  0  0  0  0  0  0
   -3.5311    2.2553   -2.5230 Cl  0  0  0  0  0  0  0  0  0  0  0  0
   -0.9432    3.8384   -1.5432 Cl  0  0  0  0  0  0  0  0  0  0  0  0
    1.6916   -1.0704    4.4011 Cl  0  0  0  0  0  0  0  0  0  0  0  0
    4.1940   -2.3992    2.8382 Cl  0  0  0  0  0  0  0  0  0  0  0  0
    1.9323   -1.0278   -1.1989 H   0  0  0  0  0  0  0  0  0  0  0  0
    3.7532   -2.0746    0.0671 H   0  0  0  0  0  0  0  0  0  0  0  0
   -0.0785   -0.0355    2.4784 H   0  0  0  0  0  0  0  0  0  0  0  0
    0.7251    2.0685   -0.1631 H   0  0  0  0  0  0  0  0  0  0  0  0
  1  6  2  0
  1  2  1  0
  2  3  2  0
  3  4  1  0
  4  5  2  0
  5  6  1  0
  6  7  1  0
  7 12  1  0
  7  8  2  0
  8  9  1  0
  9 10  2  0
 10 11  1  0
 11 12  2  0
 12 13  1  0
 11 14  1  0
 10 15  1  0
  9 16  1  0
  4 17  1  0
  3 18  1  0
  1 19  1  0
  2 20  1  0
  5 21  1  0
  8 22  1  0
M  END
>  <_TriposChargeType>  (3) 
USER_CHARGES

>  <solvdG>  (3) 
-3.04

>  <fdG>  (3) 
-1.08

>  <fname>  (3) 
mobley_1034539

>  <cname>  (3) 
 1,2,3,4-tetrachloro-5-(3,4-dichlorophenyl)benzene

>  <dataset>  (3) 
FreeSolv

$$$$
cyclohexanamine
     RDKit          3D

 20 20  0  0  0  0  0  0  0  0999 V2000
    0.5636    0.5439   -0.7663 C   0  0  0  0  0  0  0  0  0  0  0  0
    0.3506   -0.1159   -2.1257 C   0  0  0  0  0  0  0  0  0  0  0  0
    1.0408    0.6628   -3.2444 C   0  0  0  0  0  0  0  0  0  0  0  0
    0.5978    2.1300   -3.2590 C   0  0  0  0  0  0  0  0  0  0  0  0
    0.8244    2.7893   -1.8941 C   0  0  0  0  0  0  0  0  0  0  0  0
    0.1339    2.0082   -0.7774 C   0  0  0  0  0  0  0  0  0  0  0  0
    1.3312    2.8600   -4.2912 N   0  0  0  0  0  0  0  0  0  0  0  0
    1.6233    0.4772   -0.4908 H   0  0  0  0  0  0  0  0  0  0  0  0
   -0.0003   -0.0001   -0.0002 H   0  0  0  0  0  0  0  0  0  0  0  0
    0.7339   -1.1423   -2.1012 H   0  0  0  0  0  0  0  0  0  0  0  0
   -0.7241   -0.1812   -2.3359 H   0  0  0  0  0  0  0  0  0  0  0  0
    2.1282    0.5956   -3.1068 H   0  0  0  0  0  0  0  0  0  0  0  0
    0.8129    0.1888   -4.2071 H   0  0  0  0  0  0  0  0  0  0  0  0
   -0.4669    2.1774   -3.5038 H   0  0  0  0  0  0  0  0  0  0  0  0
    1.8988    2.8502   -1.6757 H   0  0  0  0  0  0  0  0  0  0  0  0
    0.4434    3.8179   -1.9023 H   0  0  0  0  0  0  0  0  0  0  0  0
    0.3651    2.4674    0.1903 H   0  0  0  0  0  0  0  0  0  0  0  0
   -0.9536    2.0687   -0.9086 H   0  0  0  0  0  0  0  0  0  0  0  0
    0.9920    2.8130   -5.2264 H   0  0  0  0  0  0  0  0  0  0  0  0
    2.2393    3.2011   -4.0657 H   0  0  0  0  0  0  0  0  0  0  0  0
  1  6  1  0
  1  2  1  0
  2  3  1  0
  3  4  1  0
  4  5  1  0
  5  6  1  0
  4  7  1  0
  1  8  1  0
  1  9  1  0
  2 10  1  0
  2 11  1  0
  3 12  1  0
  3 13  1  0
  4 14  1  0
  5 15  1  0
  5 16  1  0
  6 17  1  0
  6 18  1  0
  7 19  1  0
  7 20  1  0
M  END
>  <_TriposChargeType>  (4) 
USER_CHARGES

>  <solvdG>  (4) 
-4.59

>  <fdG>  (4) 
-3.95

>  <fname>  (4) 
mobley_1036761

>  <cname>  (4) 
 cyclohexanamine

>  <dataset>  (4) 
FreeSolv

$$$$
phenyl formate
     RDKit          3D

 15 15  0  0  0  0  0  0  0  0999 V2000
    1.8851   -1.0363   -0.1124 C   0  0  0  0  0  0  0  0  0  0  0  0
    2.9210   -1.6309    0.6081 C   0  0  0  0  0  0  0  0  0  0  0  0
    2.8783   -1.6520    2.0022 C   0  0  0  0  0  0  0  0  0  0  0  0
    1.7997   -1.0786    2.6757 C   0  0  0  0  0  0  0  0  0  0  0  0
    0.7638   -0.4841    1.9551 C   0  0  0  0  0  0  0  0  0  0  0  0
    0.8066   -0.4630    0.5610 C   0  0  0  0  0  0  0  0  0  0  0  0
    1.7593   -1.0981    4.0359 O   0  0  0  0  0  0  0  0  0  0  0  0
    2.3598    0.0145    4.6326 C   0  0  0  0  0  0  0  0  0  0  0  0
    2.8915    0.9564    4.0658 O   0  0  0  0  0  0  0  0  0  0  0  0
    1.9184   -1.0206   -1.1979 H   0  0  0  0  0  0  0  0  0  0  0  0
    3.7605   -2.0773    0.0830 H   0  0  0  0  0  0  0  0  0  0  0  0
    3.6889   -2.1149    2.5584 H   0  0  0  0  0  0  0  0  0  0  0  0
   -0.0785   -0.0345    2.4737 H   0  0  0  0  0  0  0  0  0  0  0  0
   -0.0001    0.0001    0.0001 H   0  0  0  0  0  0  0  0  0  0  0  0
    2.2801   -0.0847    5.7271 H   0  0  0  0  0  0  0  0  0  0  0  0
  1  6  2  0
  1  2  1  0
  2  3  2  0
  3  4  1  0
  4  5  2  0
  5  6  1  0
  4  7  1  0
  7  8  1  0
  8  9  2  0
  1 10  1  0
  2 11  1  0
  3 12  1  0
  5 13  1  0
  6 14  1  0
  8 15  1  0
M  END
>  <_TriposChargeType>  (5) 
USER_CHARGES

>  <solvdG>  (5) 
-3.82

>  <fdG>  (5) 
-5.44

>  <fname>  (5) 
mobley_1046331

>  <cname>  (5) 
 phenyl formate

>  <dataset>  (5) 
FreeSolv

$$$$
methyl propanoate
     RDKit          3D

 14 13  0  0  0  0  0  0  0  0999 V2000
   -0.8719    0.5457    0.3733 C   0  0  0  0  0  0  0  0  0  0  0  0
   -0.8823    0.5514    1.8920 C   0  0  0  0  0  0  0  0  0  0  0  0
   -2.0715    1.2977    2.4497 C   0  0  0  0  0  0  0  0  0  0  0  0
   -2.9390    1.8427    1.7813 O   0  0  0  0  0  0  0  0  0  0  0  0
   -2.0152    1.2623    3.8143 O   0  0  0  0  0  0  0  0  0  0  0  0
   -3.0823    1.9328    4.4926 C   0  0  0  0  0  0  0  0  0  0  0  0
   -0.0038    0.0009   -0.0122 H   0  0  0  0  0  0  0  0  0  0  0  0
   -1.7764    0.0655   -0.0124 H   0  0  0  0  0  0  0  0  0  0  0  0
   -0.8300    1.5656   -0.0233 H   0  0  0  0  0  0  0  0  0  0  0  0
    0.0313    1.0312    2.2588 H   0  0  0  0  0  0  0  0  0  0  0  0
   -0.9178   -0.4803    2.2576 H   0  0  0  0  0  0  0  0  0  0  0  0
   -2.9297    1.8370    5.5652 H   0  0  0  0  0  0  0  0  0  0  0  0
   -4.0255    1.4804    4.1940 H   0  0  0  0  0  0  0  0  0  0  0  0
   -3.0626    2.9814    4.2045 H   0  0  0  0  0  0  0  0  0  0  0  0
  1  2  1  0
  2  3  1  0
  3  4  2  0
  3  5  1  0
  5  6  1  0
  1  7  1  0
  1  8  1  0
  1  9  1  0
  2 10  1  0
  2 11  1  0
  6 12  1  0
  6 13  1  0
  6 14  1  0
M  END
>  <_TriposChargeType>  (6) 
USER_CHARGES

>  <solvdG>  (6) 
-2.93

>  <fdG>  (6) 
-3.65

>  <fname>  (6) 
mobley_1075836

>  <cname>  (6) 
 methyl propanoate

>  <dataset>  (6) 
FreeSolv

$$$$
1,3-dichlorobenzene
     RDKit          3D

 12 12  0  0  0  0  0  0  0  0999 V2000
    1.8851   -1.0363   -0.1124 C   0  0  0  0  0  0  0  0  0  0  0  0
    2.9210   -1.6309    0.6081 C   0  0  0  0  0  0  0  0  0  0  0  0
    2.8783   -1.6520    2.0022 C   0  0  0  0  0  0  0  0  0  0  0  0
    1.7997   -1.0786    2.6757 C   0  0  0  0  0  0  0  0  0  0  0  0
    0.7638   -0.4841    1.9551 C   0  0  0  0  0  0  0  0  0  0  0  0
    0.8066   -0.4630    0.5610 C   0  0  0  0  0  0  0  0  0  0  0  0
   -0.5673    0.2229    2.7855 Cl  0  0  0  0  0  0  0  0  0  0  0  0
    4.1566   -2.3852    2.8910 Cl  0  0  0  0  0  0  0  0  0  0  0  0
    1.9188   -1.0200   -1.1978 H   0  0  0  0  0  0  0  0  0  0  0  0
    3.7550   -2.0736    0.0699 H   0  0  0  0  0  0  0  0  0  0  0  0
    1.7670   -1.0947    3.7630 H   0  0  0  0  0  0  0  0  0  0  0  0
    0.0066   -0.0033   -0.0138 H   0  0  0  0  0  0  0  0  0  0  0  0
  1  6  2  0
  1  2  1  0
  2  3  2  0
  3  4  1  0
  4  5  2  0
  5  6  1  0
  5  7  1  0
  3  8  1  0
  1  9  1  0
  2 10  1  0
  4 11  1  0
  6 12  1  0
M  END
>  <_TriposChargeType>  (7) 
USER_CHARGES

>  <solvdG>  (7) 
-0.98

>  <fdG>  (7) 
-0.11

>  <fname>  (7) 
mobley_1079207

>  <cname>  (7) 
 1,3-dichlorobenzene

>  <dataset>  (7) 
FreeSolv

$$$$
iodoethane
     RDKit          3D

  8  7  0  0  0  0  0  0  0  0999 V2000
    0.1447   -0.6955    0.8338 C   0  0  0  0  0  0  0  0  0  0  0  0
    1.4101   -0.3747    1.6104 C   0  0  0  0  0  0  0  0  0  0  0  0
    3.1275   -0.5146    0.3556 I   0  0  0  0  0  0  0  0  0  0  0  0
   -0.7286   -0.6199    1.4900 H   0  0  0  0  0  0  0  0  0  0  0  0
   -0.0003    0.0003    0.0003 H   0  0  0  0  0  0  0  0  0  0  0  0
    0.1717   -1.7121    0.4267 H   0  0  0  0  0  0  0  0  0  0  0  0
    1.5088   -1.0687    2.4520 H   0  0  0  0  0  0  0  0  0  0  0  0
    1.3374    0.6351    2.0281 H   0  0  0  0  0  0  0  0  0  0  0  0
  1  2  1  0
  2  3  1  0
  1  4  1  0
  1  5  1  0
  1  6  1  0
  2  7  1  0
  2  8  1  0
M  END
>  <_TriposChargeType>  (8) 
USER_CHARGES

>  <solvdG>  (8) 
-0.74

>  <fdG>  (8) 
-0.61

>  <fname>  (8) 
mobley_1107178

>  <cname>  (8) 
 iodoethane

>  <dataset>  (8) 
FreeSolv

$$$$
2,2,4-trimethylpentane
     RDKit          3D

 26 25  0  0  0  0  0  0  0  0999 V2000
    1.2356    1.7418   -0.0832 C   0  0  0  0  0  0  0  0  0  0  0  0
    0.2970    1.0738    0.9283 C   0  0  0  0  0  0  0  0  0  0  0  0
    1.1404    0.2818    1.9326 C   0  0  0  0  0  0  0  0  0  0  0  0
   -0.7192    0.1699    0.1915 C   0  0  0  0  0  0  0  0  0  0  0  0
   -0.1380   -0.9954   -0.6605 C   0  0  0  0  0  0  0  0  0  0  0  0
    1.1916   -1.4945   -0.0656 C   0  0  0  0  0  0  0  0  0  0  0  0
   -1.1476   -2.1616   -0.6240 C   0  0  0  0  0  0  0  0  0  0  0  0
    0.0843   -0.5953   -2.1254 C   0  0  0  0  0  0  0  0  0  0  0  0
    0.6677    2.3194   -0.8203 H   0  0  0  0  0  0  0  0  0  0  0  0
    1.9373    2.4209    0.4131 H   0  0  0  0  0  0  0  0  0  0  0  0
    1.8166    0.9901   -0.6281 H   0  0  0  0  0  0  0  0  0  0  0  0
   -0.2206    1.8725    1.4687 H   0  0  0  0  0  0  0  0  0  0  0  0
    0.5084   -0.2144    2.6775 H   0  0  0  0  0  0  0  0  0  0  0  0
    1.7228   -0.4921    1.4206 H   0  0  0  0  0  0  0  0  0  0  0  0
    1.8469    0.9217    2.4662 H   0  0  0  0  0  0  0  0  0  0  0  0
   -1.3995   -0.2775    0.9300 H   0  0  0  0  0  0  0  0  0  0  0  0
   -1.3573    0.7976   -0.4456 H   0  0  0  0  0  0  0  0  0  0  0  0
    1.6195   -2.3153   -0.6492 H   0  0  0  0  0  0  0  0  0  0  0  0
    1.0505   -1.8649    0.9565 H   0  0  0  0  0  0  0  0  0  0  0  0
    1.9338   -0.6894   -0.0255 H   0  0  0  0  0  0  0  0  0  0  0  0
   -0.7880   -3.0144   -1.2108 H   0  0  0  0  0  0  0  0  0  0  0  0
   -2.1178   -1.8588   -1.0339 H   0  0  0  0  0  0  0  0  0  0  0  0
   -1.3152   -2.5115    0.4010 H   0  0  0  0  0  0  0  0  0  0  0  0
    0.4935   -1.4316   -2.7042 H   0  0  0  0  0  0  0  0  0  0  0  0
    0.7946    0.2328   -2.2154 H   0  0  0  0  0  0  0  0  0  0  0  0
   -0.8563   -0.2959   -2.6004 H   0  0  0  0  0  0  0  0  0  0  0  0
  1  2  1  0
  2  3  1  0
  2  4  1  0
  4  5  1  0
  5  6  1  0
  5  7  1  0
  5  8  1  0
  1  9  1  0
  1 10  1  0
  1 11  1  0
  2 12  1  0
  3 13  1  0
  3 14  1  0
  3 15  1  0
  4 16  1  0
  4 17  1  0
  6 18  1  0
  6 19  1  0
  6 20  1  0
  7 21  1  0
  7 22  1  0
  7 23  1  0
  8 24  1  0
  8 25  1  0
  8 26  1  0
M  END
>  <_TriposChargeType>  (9) 
USER_CHARGES

>  <solvdG>  (9) 
2.89

>  <fdG>  (9) 
2.54

>  <fname>  (9) 
mobley_1139153

>  <cname>  (9) 
 2,2,4-trimethylpentane

>  <dataset>  (9) 
FreeSolv

$$$$
ethoxyethane
     RDKit          3D

 15 14  0  0  0  0  0  0  0  0999 V2000
    0.9167    1.4498    0.5861 C   0  0  0  0  0  0  0  0  0  0  0  0
    1.9101    0.9126   -0.4220 C   0  0  0  0  0  0  0  0  0  0  0  0
    1.5170    1.3236   -1.7228 O   0  0  0  0  0  0  0  0  0  0  0  0
    2.4157    0.8471   -2.7161 C   0  0  0  0  0  0  0  0  0  0  0  0
    1.9417    1.3181   -4.0738 C   0  0  0  0  0  0  0  0  0  0  0  0
    1.1907    1.1506    1.6015 H   0  0  0  0  0  0  0  0  0  0  0  0
    0.8722    2.5429    0.5394 H   0  0  0  0  0  0  0  0  0  0  0  0
   -0.0912    1.0808    0.3689 H   0  0  0  0  0  0  0  0  0  0  0  0
    1.9355   -0.1807   -0.3905 H   0  0  0  0  0  0  0  0  0  0  0  0
    2.9125    1.3005   -0.2176 H   0  0  0  0  0  0  0  0  0  0  0  0
    3.4145    1.2363   -2.5006 H   0  0  0  0  0  0  0  0  0  0  0  0
    2.4381   -0.2453   -2.6734 H   0  0  0  0  0  0  0  0  0  0  0  0
    2.6128    0.9678   -4.8630 H   0  0  0  0  0  0  0  0  0  0  0  0
    0.9313    0.9500   -4.2797 H   0  0  0  0  0  0  0  0  0  0  0  0
    1.8955    2.4116   -4.1090 H   0  0  0  0  0  0  0  0  0  0  0  0
  1  2  1  0
  2  3  1  0
  3  4  1  0
  4  5  1  0
  1  6  1  0
  1  7  1  0
  1  8  1  0
  2  9  1  0
  2 10  1  0
  4 11  1  0
  4 12  1  0
  5 13  1  0
  5 14  1  0
  5 15  1  0
M  END
>  <_TriposChargeType>  (10) 
USER_CHARGES

>  <solvdG>  (10) 
-1.59

>  <fdG>  (10) 
-0.62

>  <fname>  (10) 
mobley_1144156

>  <cname>  (10) 
 ethoxyethane

>  <dataset>  (10) 
FreeSolv

$$$$
(2R,5R)-5-isopropenyl-2-methyl-cyclohexanone
     RDKit          3D

 27 27  0  0  0  0  0  0  0  0999 V2000
    0.9642    0.6826   -2.5250 C   0  0  0  0  0  0  0  0  0  0  0  0
    0.6128   -0.0968   -1.2618 C   0  0  2  0  0  0  0  0  0  0  0  0
    1.2436   -0.9940   -1.2209 H   0  0  0  0  0  0  0  0  0  0  0  0
   -0.8623   -0.5069   -1.2705 C   0  0  0  0  0  0  0  0  0  0  0  0
   -1.2616   -1.2247    0.0196 C   0  0  0  0  0  0  0  0  0  0  0  0
   -0.9858   -0.3457    1.2464 C   0  0  2  0  0  0  0  0  0  0  0  0
   -1.6025    0.5586    1.1638 H   0  0  0  0  0  0  0  0  0  0  0  0
    0.4851    0.0696    1.3061 C   0  0  0  0  0  0  0  0  0  0  0  0
    0.9081    0.7077   -0.0006 C   0  0  0  0  0  0  0  0  0  0  0  0
    1.5300    1.7689   -0.0156 O   0  0  0  0  0  0  0  0  0  0  0  0
   -1.3904   -1.0547    2.5015 C   0  0  0  0  0  0  0  0  0  0  0  0
   -0.8449   -2.2261    2.8627 C   0  0  0  0  0  0  0  0  0  0  0  0
   -2.4409   -0.3804    3.3338 C   0  0  0  0  0  0  0  0  0  0  0  0
    0.3534    1.5872   -2.6008 H   0  0  0  0  0  0  0  0  0  0  0  0
    2.0176    0.9779   -2.5141 H   0  0  0  0  0  0  0  0  0  0  0  0
    0.7868    0.0718   -3.4152 H   0  0  0  0  0  0  0  0  0  0  0  0
   -1.4980    0.3794   -1.3957 H   0  0  0  0  0  0  0  0  0  0  0  0
   -1.0610   -1.1651   -2.1249 H   0  0  0  0  0  0  0  0  0  0  0  0
   -2.3274   -1.4805   -0.0309 H   0  0  0  0  0  0  0  0  0  0  0  0
   -0.7109   -2.1715    0.0961 H   0  0  0  0  0  0  0  0  0  0  0  0
    0.6452    0.7917    2.1157 H   0  0  0  0  0  0  0  0  0  0  0  0
    1.1421   -0.7889    1.4891 H   0  0  0  0  0  0  0  0  0  0  0  0
   -1.1456   -2.7311    3.7745 H   0  0  0  0  0  0  0  0  0  0  0  0
   -0.0853   -2.7069    2.2552 H   0  0  0  0  0  0  0  0  0  0  0  0
   -3.4386   -0.7100    3.0259 H   0  0  0  0  0  0  0  0  0  0  0  0
   -2.3038   -0.6282    4.3914 H   0  0  0  0  0  0  0  0  0  0  0  0
   -2.4060    0.7102    3.2394 H   0  0  0  0  0  0  0  0  0  0  0  0
  1  2  1  0
  2  3  1  1
  2  9  1  0
  2  4  1  0
  4  5  1  0
  5  6  1  0
  6  7  1  6
  6  8  1  0
  8  9  1  0
  9 10  2  0
  6 11  1  0
 11 12  2  3
 11 13  1  0
  1 14  1  0
  1 15  1  0
  1 16  1  0
  4 17  1  0
  4 18  1  0
  5 19  1  0
  5 20  1  0
  8 21  1  0
  8 22  1  0
 12 23  1  0
 12 24  1  0
 13 25  1  0
 13 26  1  0
 13 27  1  0
M  END
>  <_TriposChargeType>  (11) 
USER_CHARGES

>  <solvdG>  (11) 
-3.75

>  <fdG>  (11) 
-3.34

>  <fname>  (11) 
mobley_1160109

>  <cname>  (11) 
 (2R,5R)-2-methyl-5-(1-methylethenyl)-cyclohexanone

>  <dataset>  (11) 
FreeSolv

$$$$
2-chlorophenol
     RDKit          3D

 13 13  0  0  0  0  0  0  0  0999 V2000
    1.8851   -1.0363   -0.1124 C   0  0  0  0  0  0  0  0  0  0  0  0
    2.9210   -1.6309    0.6081 C   0  0  0  0  0  0  0  0  0  0  0  0
    2.8783   -1.6520    2.0022 C   0  0  0  0  0  0  0  0  0  0  0  0
    1.7997   -1.0786    2.6757 C   0  0  0  0  0  0  0  0  0  0  0  0
    0.7638   -0.4841    1.9551 C   0  0  0  0  0  0  0  0  0  0  0  0
    0.8066   -0.4630    0.5610 C   0  0  0  0  0  0  0  0  0  0  0  0
   -0.3023    0.0837    2.5868 O   0  0  0  0  0  0  0  0  0  0  0  0
    1.7729   -1.1191    4.4000 Cl  0  0  0  0  0  0  0  0  0  0  0  0
    1.9185   -1.0199   -1.1979 H   0  0  0  0  0  0  0  0  0  0  0  0
    3.7607   -2.0772    0.0836 H   0  0  0  0  0  0  0  0  0  0  0  0
    3.6933   -2.1191    2.5493 H   0  0  0  0  0  0  0  0  0  0  0  0
    0.0031   -0.0016   -0.0069 H   0  0  0  0  0  0  0  0  0  0  0  0
   -0.2051   -0.0007    3.5480 H   0  0  0  0  0  0  0  0  0  0  0  0
  1  6  2  0
  1  2  1  0
  2  3  2  0
  3  4  1  0
  4  5  2  0
  5  6  1  0
  5  7  1  0
  4  8  1  0
  1  9  1  0
  2 10  1  0
  3 11  1  0
  6 12  1  0
  7 13  1  0
M  END
>  <_TriposChargeType>  (12) 
USER_CHARGES

>  <solvdG>  (12) 
-4.55

>  <fdG>  (12) 
-3.32

>  <fname>  (12) 
mobley_1178614

>  <cname>  (12) 
 2-chlorophenol

>  <dataset>  (12) 
FreeSolv

$$$$
methylsulfanylbenzene
     RDKit          3D

 16 16  0  0  0  0  0  0  0  0999 V2000
    1.9859   -2.7830   -2.2370 C   0  0  0  0  0  0  0  0  0  0  0  0
    1.9404   -1.0078   -1.8936 S   0  0  0  0  0  0  0  0  0  0  0  0
    1.8851   -1.0363   -0.1124 C   0  0  0  0  0  0  0  0  0  0  0  0
    2.9210   -1.6309    0.6081 C   0  0  0  0  0  0  0  0  0  0  0  0
    2.8783   -1.6520    2.0022 C   0  0  0  0  0  0  0  0  0  0  0  0
    1.7997   -1.0786    2.6757 C   0  0  0  0  0  0  0  0  0  0  0  0
    0.7638   -0.4841    1.9551 C   0  0  0  0  0  0  0  0  0  0  0  0
    0.8066   -0.4630    0.5610 C   0  0  0  0  0  0  0  0  0  0  0  0
    2.0230   -2.9521   -3.3159 H   0  0  0  0  0  0  0  0  0  0  0  0
    1.0913   -3.2623   -1.8317 H   0  0  0  0  0  0  0  0  0  0  0  0
    2.8704   -3.2279   -1.7748 H   0  0  0  0  0  0  0  0  0  0  0  0
    3.7705   -2.0818    0.1009 H   0  0  0  0  0  0  0  0  0  0  0  0
    3.6851   -2.1134    2.5642 H   0  0  0  0  0  0  0  0  0  0  0  0
    1.7685   -1.0925    3.7612 H   0  0  0  0  0  0  0  0  0  0  0  0
   -0.0755   -0.0363    2.4792 H   0  0  0  0  0  0  0  0  0  0  0  0
   -0.0096    0.0059    0.0166 H   0  0  0  0  0  0  0  0  0  0  0  0
  1  2  1  0
  2  3  1  0
  3  8  2  0
  3  4  1  0
  4  5  2  0
  5  6  1  0
  6  7  2  0
  7  8  1  0
  1  9  1  0
  1 10  1  0
  1 11  1  0
  4 12  1  0
  5 13  1  0
  6 14  1  0
  7 15  1  0
  8 16  1  0
M  END
>  <_TriposChargeType>  (13) 
USER_CHARGES

>  <solvdG>  (13) 
-2.73

>  <fdG>  (13) 
-1.32

>  <fname>  (13) 
mobley_1189457

>  <cname>  (13) 
 methylsulfanylbenzene

>  <dataset>  (13) 
FreeSolv

$$$$
1-iodopropane
     RDKit          3D

 11 10  0  0  0  0  0  0  0  0999 V2000
   -0.5092   -0.5493    0.7984 C   0  0  0  0  0  0  0  0  0  0  0  0
    0.3041   -0.5215    2.0835 C   0  0  0  0  0  0  0  0  0  0  0  0
    1.6753   -1.1640    1.8863 C   0  0  0  0  0  0  0  0  0  0  0  0
    2.8006   -1.1141    3.7034 I   0  0  0  0  0  0  0  0  0  0  0  0
   -1.4874   -0.0851    0.9588 H   0  0  0  0  0  0  0  0  0  0  0  0
    0.0002   -0.0004   -0.0001 H   0  0  0  0  0  0  0  0  0  0  0  0
   -0.6725   -1.5772    0.4595 H   0  0  0  0  0  0  0  0  0  0  0  0
   -0.2530   -1.0471    2.8685 H   0  0  0  0  0  0  0  0  0  0  0  0
    0.4154    0.5191    2.4115 H   0  0  0  0  0  0  0  0  0  0  0  0
    2.2287   -0.6354    1.1021 H   0  0  0  0  0  0  0  0  0  0  0  0
    1.5598   -2.2035    1.5595 H   0  0  0  0  0  0  0  0  0  0  0  0
  1  2  1  0
  2  3  1  0
  3  4  1  0
  1  5  1  0
  1  6  1  0
  1  7  1  0
  2  8  1  0
  2  9  1  0
  3 10  1  0
  3 11  1  0
M  END
>  <_TriposChargeType>  (14) 
USER_CHARGES

>  <solvdG>  (14) 
-0.53

>  <fdG>  (14) 
-0.44

>  <fname>  (14) 
mobley_1199854

>  <cname>  (14) 
 1-iodopropane

>  <dataset>  (14) 
FreeSolv

$$$$
2-chloropropane
     RDKit          3D

 11 10  0  0  0  0  0  0  0  0999 V2000
    0.8645   -0.5428    0.3972 C   0  0  0  0  0  0  0  0  0  0  0  0
    1.0062   -0.3025    1.8932 C   0  0  0  0  0  0  0  0  0  0  0  0
    1.1975    1.1739    2.2084 C   0  0  0  0  0  0  0  0  0  0  0  0
    2.3974   -1.2326    2.5189 Cl  0  0  0  0  0  0  0  0  0  0  0  0
    0.7274   -1.6080    0.1816 H   0  0  0  0  0  0  0  0  0  0  0  0
   -0.0071   -0.0099    0.0023 H   0  0  0  0  0  0  0  0  0  0  0  0
    1.7466   -0.1958   -0.1522 H   0  0  0  0  0  0  0  0  0  0  0  0
    0.1164   -0.6755    2.4103 H   0  0  0  0  0  0  0  0  0  0  0  0
    1.2984    1.3354    3.2871 H   0  0  0  0  0  0  0  0  0  0  0  0
    0.3356    1.7559    1.8651 H   0  0  0  0  0  0  0  0  0  0  0  0
    2.0910    1.5778    1.7197 H   0  0  0  0  0  0  0  0  0  0  0  0
  1  2  1  0
  2  3  1  0
  2  4  1  0
  1  5  1  0
  1  6  1  0
  1  7  1  0
  2  8  1  0
  3  9  1  0
  3 10  1  0
  3 11  1  0
M  END
>  <_TriposChargeType>  (15) 
USER_CHARGES

>  <solvdG>  (15) 
-0.25

>  <fdG>  (15) 
0.83

>  <fname>  (15) 
mobley_1231151

>  <cname>  (15) 
 2-chloropropane

>  <dataset>  (15) 
FreeSolv

$$$$
1-nitropentane
     RDKit          3D

 19 18  0  0  0  0  0  0  0  0999 V2000
    0.0743   -0.6781    0.8569 C   0  0  0  0  0  0  0  0  0  0  0  0
    1.3441   -0.4153    1.6505 C   0  0  0  0  0  0  0  0  0  0  0  0
    2.5932   -0.6236    0.7946 C   0  0  0  0  0  0  0  0  0  0  0  0
    3.8685   -0.3582    1.5969 C   0  0  0  0  0  0  0  0  0  0  0  0
    5.1078   -0.5676    0.7381 C   0  0  0  0  0  0  0  0  0  0  0  0
    6.3019   -0.3033    1.5446 N   0  0  0  0  0  4  0  0  0  0  0  0
    6.8069   -1.2583    2.1675 O   0  0  0  0  0  0  0  0  0  0  0  0
    6.7392    0.8641    1.5800 O   0  0  0  0  0  1  0  0  0  0  0  0
   -0.8061   -0.5233    1.4883 H   0  0  0  0  0  0  0  0  0  0  0  0
    0.0004   -0.0021   -0.0009 H   0  0  0  0  0  0  0  0  0  0  0  0
    0.0495   -1.7078    0.4862 H   0  0  0  0  0  0  0  0  0  0  0  0
    1.3708   -1.0857    2.5175 H   0  0  0  0  0  0  0  0  0  0  0  0
    1.3224    0.6114    2.0343 H   0  0  0  0  0  0  0  0  0  0  0  0
    2.5596    0.0455   -0.0739 H   0  0  0  0  0  0  0  0  0  0  0  0
    2.6081   -1.6512    0.4108 H   0  0  0  0  0  0  0  0  0  0  0  0
    3.8981   -1.0244    2.4692 H   0  0  0  0  0  0  0  0  0  0  0  0
    3.8492    0.6682    1.9863 H   0  0  0  0  0  0  0  0  0  0  0  0
    5.1347    0.1179   -0.1137 H   0  0  0  0  0  0  0  0  0  0  0  0
    5.1814   -1.5979    0.3783 H   0  0  0  0  0  0  0  0  0  0  0  0
  1  2  1  0
  2  3  1  0
  3  4  1  0
  4  5  1  0
  5  6  1  0
  6  7  2  0
  6  8  1  0
  1  9  1  0
  1 10  1  0
  1 11  1  0
  2 12  1  0
  2 13  1  0
  3 14  1  0
  3 15  1  0
  4 16  1  0
  4 17  1  0
  5 18  1  0
  5 19  1  0
M  CHG  2   6   1   8  -1
M  END
>  <_TriposChargeType>  (16) 
USER_CHARGES

>  <solvdG>  (16) 
-2.82

>  <fdG>  (16) 
-1.32

>  <fname>  (16) 
mobley_1235151

>  <cname>  (16) 
 1-nitropentane

>  <dataset>  (16) 
FreeSolv

$$$$
cycloheptanol
     RDKit          3D

 22 22  0  0  0  0  0  0  0  0999 V2000
    0.8256   -0.2293    0.6859 C   0  0  0  0  0  0  0  0  0  0  0  0
    0.7738   -1.7245    0.9847 C   0  0  0  0  0  0  0  0  0  0  0  0
    1.4773   -2.2078    2.2490 C   0  0  0  0  0  0  0  0  0  0  0  0
    2.8095   -1.5314    2.5507 C   0  0  0  0  0  0  0  0  0  0  0  0
    2.6557   -0.2347    3.3469 C   0  0  0  0  0  0  0  0  0  0  0  0
    2.0672    0.9397    2.5671 C   0  0  0  0  0  0  0  0  0  0  0  0
    0.7164    0.6798    1.9056 C   0  0  0  0  0  0  0  0  0  0  0  0
    3.9582    0.1437    3.8016 O   0  0  0  0  0  0  0  0  0  0  0  0
   -0.0004    0.0001    0.0002 H   0  0  0  0  0  0  0  0  0  0  0  0
    1.7431    0.0010    0.1301 H   0  0  0  0  0  0  0  0  0  0  0  0
   -0.2764   -2.0389    1.0442 H   0  0  0  0  0  0  0  0  0  0  0  0
    1.1910   -2.2559    0.1198 H   0  0  0  0  0  0  0  0  0  0  0  0
    0.8028   -2.1020    3.1077 H   0  0  0  0  0  0  0  0  0  0  0  0
    1.6477   -3.2866    2.1399 H   0  0  0  0  0  0  0  0  0  0  0  0
    3.4153   -2.2230    3.1518 H   0  0  0  0  0  0  0  0  0  0  0  0
    3.3899   -1.3633    1.6352 H   0  0  0  0  0  0  0  0  0  0  0  0
    2.0494   -0.4254    4.2403 H   0  0  0  0  0  0  0  0  0  0  0  0
    1.9586    1.7862    3.2587 H   0  0  0  0  0  0  0  0  0  0  0  0
    2.7917    1.2841    1.8170 H   0  0  0  0  0  0  0  0  0  0  0  0
   -0.0095    0.2918    2.6291 H   0  0  0  0  0  0  0  0  0  0  0  0
    0.3290    1.6485    1.5655 H   0  0  0  0  0  0  0  0  0  0  0  0
    3.8424    0.9642    4.3024 H   0  0  0  0  0  0  0  0  0  0  0  0
  1  7  1  0
  1  2  1  0
  2  3  1  0
  3  4  1  0
  4  5  1  0
  5  6  1  0
  6  7  1  0
  5  8  1  0
  1  9  1  0
  1 10  1  0
  2 11  1  0
  2 12  1  0
  3 13  1  0
  3 14  1  0
  4 15  1  0
  4 16  1  0
  5 17  1  0
  6 18  1  0
  6 19  1  0
  7 20  1  0
  7 21  1  0
  8 22  1  0
M  END
>  <_TriposChargeType>  (17) 
USER_CHARGES

>  <solvdG>  (17) 
-5.48

>  <fdG>  (17) 
-4.34

>  <fname>  (17) 
mobley_1244778

>  <cname>  (17) 
 cycloheptanol

>  <dataset>  (17) 
FreeSolv

$$$$
neopentane
     RDKit          3D

 17 16  0  0  0  0  0  0  0  0999 V2000
   -0.6138   -0.1246    0.8990 C   0  0  0  0  0  0  0  0  0  0  0  0
    0.2605   -0.3499    2.1409 C   0  0  0  0  0  0  0  0  0  0  0  0
    1.1851    0.8592    2.3421 C   0  0  0  0  0  0  0  0  0  0  0  0
    1.1078   -1.6156    1.9474 C   0  0  0  0  0  0  0  0  0  0  0  0
   -0.6372   -0.5188    3.3750 C   0  0  0  0  0  0  0  0  0  0  0  0
   -1.2862   -0.9729    0.7289 H   0  0  0  0  0  0  0  0  0  0  0  0
   -1.2316    0.7738    1.0075 H   0  0  0  0  0  0  0  0  0  0  0  0
    0.0000   -0.0004   -0.0001 H   0  0  0  0  0  0  0  0  0  0  0  0
    1.8231    0.7275    3.2232 H   0  0  0  0  0  0  0  0  0  0  0  0
    0.6080    1.7800    2.4832 H   0  0  0  0  0  0  0  0  0  0  0  0
    1.8396    1.0056    1.4756 H   0  0  0  0  0  0  0  0  0  0  0  0
    1.7442   -1.8033    2.8195 H   0  0  0  0  0  0  0  0  0  0  0  0
    0.4743   -2.4976    1.8010 H   0  0  0  0  0  0  0  0  0  0  0  0
    1.7605   -1.5250    1.0719 H   0  0  0  0  0  0  0  0  0  0  0  0
   -0.0405   -0.6817    4.2795 H   0  0  0  0  0  0  0  0  0  0  0  0
   -1.3101   -1.3760    3.2607 H   0  0  0  0  0  0  0  0  0  0  0  0
   -1.2556    0.3709    3.5395 H   0  0  0  0  0  0  0  0  0  0  0  0
  1  2  1  0
  2  3  1  0
  2  4  1  0
  2  5  1  0
  1  6  1  0
  1  7  1  0
  1  8  1  0
  3  9  1  0
  3 10  1  0
  3 11  1  0
  4 12  1  0
  4 13  1  0
  4 14  1  0
  5 15  1  0
  5 16  1  0
  5 17  1  0
M  END
>  <_TriposChargeType>  (18) 
USER_CHARGES

>  <solvdG>  (18) 
2.51

>  <fdG>  (18) 
2.51

>  <fname>  (18) 
mobley_1261349

>  <cname>  (18) 
 neopentane

>  <dataset>  (18) 
FreeSolv

$$$$
1,1,1,2,2,2-hexachloroethane
     RDKit          3D

  8  7  0  0  0  0  0  0  0  0999 V2000
    0.2057   -0.3634   -0.6555 C   0  0  0  0  0  0  0  0  0  0  0  0
   -0.2055    0.3634    0.6554 C   0  0  0  0  0  0  0  0  0  0  0  0
   -1.2156    1.8228    0.3249 Cl  0  0  0  0  0  0  0  0  0  0  0  0
   -1.1664   -0.7089    1.7445 Cl  0  0  0  0  0  0  0  0  0  0  0  0
    1.2331    0.9180    1.5948 Cl  0  0  0  0  0  0  0  0  0  0  0  0
    1.1666    0.7091   -1.7443 Cl  0  0  0  0  0  0  0  0  0  0  0  0
   -1.2330   -0.9179   -1.5946 Cl  0  0  0  0  0  0  0  0  0  0  0  0
    1.2157   -1.8228   -0.3251 Cl  0  0  0  0  0  0  0  0  0  0  0  0
  1  2  1  0
  2  3  1  0
  2  4  1  0
  2  5  1  0
  1  6  1  0
  1  7  1  0
  1  8  1  0
M  END
>  <_TriposChargeType>  (19) 
USER_CHARGES

>  <solvdG>  (19) 
-0.64

>  <fdG>  (19) 
0.89

>  <fname>  (19) 
mobley_1278715

>  <cname>  (19) 
 hexachloroethane

>  <dataset>  (19) 
FreeSolv

$$$$
1-butoxybutane
     RDKit          3D

 27 26  0  0  0  0  0  0  0  0999 V2000
    0.7030   -2.2329   -0.7710 C   0  0  0  0  0  0  0  0  0  0  0  0
   -0.4191   -2.6451    0.1683 C   0  0  0  0  0  0  0  0  0  0  0  0
   -1.7782   -2.5830   -0.5230 C   0  0  0  0  0  0  0  0  0  0  0  0
   -2.9047   -2.9950    0.4140 C   0  0  0  0  0  0  0  0  0  0  0  0
   -4.1377   -2.9159   -0.2877 O   0  0  0  0  0  0  0  0  0  0  0  0
   -5.2329   -3.2900    0.5372 C   0  0  0  0  0  0  0  0  0  0  0  0
   -6.5171   -3.1833   -0.2727 C   0  0  0  0  0  0  0  0  0  0  0  0
   -7.7388   -3.5722    0.5549 C   0  0  0  0  0  0  0  0  0  0  0  0
   -9.0193   -3.4644   -0.2574 C   0  0  0  0  0  0  0  0  0  0  0  0
    1.6737   -2.2803   -0.2672 H   0  0  0  0  0  0  0  0  0  0  0  0
    0.7392   -2.8856   -1.6491 H   0  0  0  0  0  0  0  0  0  0  0  0
    0.5497   -1.2060   -1.1171 H   0  0  0  0  0  0  0  0  0  0  0  0
   -0.2308   -3.6631    0.5285 H   0  0  0  0  0  0  0  0  0  0  0  0
   -0.4157   -1.9853    1.0437 H   0  0  0  0  0  0  0  0  0  0  0  0
   -1.9687   -1.5691   -0.8963 H   0  0  0  0  0  0  0  0  0  0  0  0
   -1.7848   -3.2334   -1.4067 H   0  0  0  0  0  0  0  0  0  0  0  0
   -2.7673   -4.0239    0.7614 H   0  0  0  0  0  0  0  0  0  0  0  0
   -2.9546   -2.3293    1.2816 H   0  0  0  0  0  0  0  0  0  0  0  0
   -5.2603   -2.6213    1.4033 H   0  0  0  0  0  0  0  0  0  0  0  0
   -5.0729   -4.3160    0.8833 H   0  0  0  0  0  0  0  0  0  0  0  0
   -6.4406   -3.8227   -1.1609 H   0  0  0  0  0  0  0  0  0  0  0  0
   -6.6245   -2.1586   -0.6500 H   0  0  0  0  0  0  0  0  0  0  0  0
   -7.8151   -2.9222    1.4343 H   0  0  0  0  0  0  0  0  0  0  0  0
   -7.6301   -4.6002    0.9197 H   0  0  0  0  0  0  0  0  0  0  0  0
   -9.8901   -3.7450    0.3437 H   0  0  0  0  0  0  0  0  0  0  0  0
   -9.1679   -2.4428   -0.6217 H   0  0  0  0  0  0  0  0  0  0  0  0
   -8.9757   -4.1311   -1.1242 H   0  0  0  0  0  0  0  0  0  0  0  0
  1  2  1  0
  2  3  1  0
  3  4  1  0
  4  5  1  0
  5  6  1  0
  6  7  1  0
  7  8  1  0
  8  9  1  0
  1 10  1  0
  1 11  1  0
  1 12  1  0
  2 13  1  0
  2 14  1  0
  3 15  1  0
  3 16  1  0
  4 17  1  0
  4 18  1  0
  6 19  1  0
  6 20  1  0
  7 21  1  0
  7 22  1  0
  8 23  1  0
  8 24  1  0
  9 25  1  0
  9 26  1  0
  9 27  1  0
M  END
>  <_TriposChargeType>  (20) 
USER_CHARGES

>  <solvdG>  (20) 
-0.83

>  <fdG>  (20) 
0.14

>  <fname>  (20) 
mobley_129464

>  <cname>  (20) 
 1-butoxybutane

>  <dataset>  (20) 
FreeSolv

$$$$
triethyl phosphate
     RDKit          3D

 26 25  0  0  0  0  0  0  0  0999 V2000
   -0.3558    0.1904    0.1426 C   0  0  0  0  0  0  0  0  0  0  0  0
    1.0022   -0.2850   -0.3279 C   0  0  0  0  0  0  0  0  0  0  0  0
    1.0804   -0.1386   -1.7355 O   0  0  0  0  0  0  0  0  0  0  0  0
    2.4477   -0.5829   -2.4828 P   0  0  0  0  0  5  0  0  0  0  0  0
    2.8147   -2.0294   -2.3083 O   0  0  0  0  0  0  0  0  0  0  0  0
    2.1854   -0.1335   -4.0172 O   0  0  0  0  0  0  0  0  0  0  0  0
    3.2018   -0.3765   -4.9748 C   0  0  0  0  0  0  0  0  0  0  0  0
    2.7378    0.1229   -6.3273 C   0  0  0  0  0  0  0  0  0  0  0  0
    3.5625    0.4610   -1.9406 O   0  0  0  0  0  0  0  0  0  0  0  0
    3.4017    1.8520   -2.1603 C   0  0  0  0  0  0  0  0  0  0  0  0
    4.5783    2.5885   -1.5545 C   0  0  0  0  0  0  0  0  0  0  0  0
   -0.4497    0.0909    1.2276 H   0  0  0  0  0  0  0  0  0  0  0  0
   -0.5139    1.2387   -0.1312 H   0  0  0  0  0  0  0  0  0  0  0  0
   -1.1538   -0.3873   -0.3355 H   0  0  0  0  0  0  0  0  0  0  0  0
    1.1487   -1.3393   -0.0746 H   0  0  0  0  0  0  0  0  0  0  0  0
    1.7977    0.3082    0.1329 H   0  0  0  0  0  0  0  0  0  0  0  0
    4.1126    0.1467   -4.6660 H   0  0  0  0  0  0  0  0  0  0  0  0
    3.4037   -1.4519   -5.0128 H   0  0  0  0  0  0  0  0  0  0  0  0
    3.5008   -0.0497   -7.0914 H   0  0  0  0  0  0  0  0  0  0  0  0
    1.8147   -0.3830   -6.6288 H   0  0  0  0  0  0  0  0  0  0  0  0
    2.5148    1.1942   -6.2864 H   0  0  0  0  0  0  0  0  0  0  0  0
    3.3486    2.0370   -3.2380 H   0  0  0  0  0  0  0  0  0  0  0  0
    2.4657    2.1786   -1.6958 H   0  0  0  0  0  0  0  0  0  0  0  0
    4.4855    3.6674   -1.7067 H   0  0  0  0  0  0  0  0  0  0  0  0
    4.6470    2.3875   -0.4804 H   0  0  0  0  0  0  0  0  0  0  0  0
    5.5178    2.2481   -2.0027 H   0  0  0  0  0  0  0  0  0  0  0  0
  1  2  1  0
  2  3  1  0
  3  4  1  0
  4  5  2  0
  4  6  1  0
  6  7  1  0
  7  8  1  0
  4  9  1  0
  9 10  1  0
 10 11  1  0
  1 12  1  0
  1 13  1  0
  1 14  1  0
  2 15  1  0
  2 16  1  0
  7 17  1  0
  7 18  1  0
  8 19  1  0
  8 20  1  0
  8 21  1  0
 10 22  1  0
 10 23  1  0
 11 24  1  0
 11 25  1  0
 11 26  1  0
M  END
>  <_TriposChargeType>  (21) 
USER_CHARGES

>  <solvdG>  (21) 
-7.5

>  <fdG>  (21) 
-10.25

>  <fname>  (21) 
mobley_1323538

>  <cname>  (21) 
 triethylphosphate

>  <dataset>  (21) 
FreeSolv

$$$$
1,1,2-trichloroethane
     RDKit          3D

  8  7  0  0  0  0  0  0  0  0999 V2000
   -0.1944    0.6220    0.4658 C   0  0  0  0  0  0  0  0  0  0  0  0
    0.4262   -0.4924   -0.3724 C   0  0  0  0  0  0  0  0  0  0  0  0
   -0.0730   -0.3968   -2.0796 Cl  0  0  0  0  0  0  0  0  0  0  0  0
    0.0549   -2.1052    0.2867 Cl  0  0  0  0  0  0  0  0  0  0  0  0
   -1.9773    0.6014    0.4732 Cl  0  0  0  0  0  0  0  0  0  0  0  0
    0.1335    0.5476    1.5078 H   0  0  0  0  0  0  0  0  0  0  0  0
    0.1153    1.6033    0.0916 H   0  0  0  0  0  0  0  0  0  0  0  0
    1.5153   -0.3910   -0.3579 H   0  0  0  0  0  0  0  0  0  0  0  0
  1  2  1  0
  2  3  1  0
  2  4  1  0
  1  5  1  0
  1  6  1  0
  1  7  1  0
  2  8  1  0
M  END
>  <_TriposChargeType>  (22) 
USER_CHARGES

>  <solvdG>  (22) 
-1.99

>  <fdG>  (22) 
-0.38

>  <fname>  (22) 
mobley_1328465

>  <cname>  (22) 
 1,1,2-trichloroethane

>  <dataset>  (22) 
FreeSolv

$$$$
methyl 4-nitrobenzoate
     RDKit          3D

 20 20  0  0  0  0  0  0  0  0999 V2000
    0.5850   -1.0144   -3.5067 C   0  0  0  0  0  0  0  0  0  0  0  0
    0.6730   -1.0318   -2.0778 O   0  0  0  0  0  0  0  0  0  0  0  0
    1.9299   -1.0146   -1.5658 C   0  0  0  0  0  0  0  0  0  0  0  0
    2.9710   -0.9861   -2.2035 O   0  0  0  0  0  0  0  0  0  0  0  0
    1.8851   -1.0363   -0.1124 C   0  0  0  0  0  0  0  0  0  0  0  0
    2.9210   -1.6309    0.6081 C   0  0  0  0  0  0  0  0  0  0  0  0
    2.8783   -1.6520    2.0022 C   0  0  0  0  0  0  0  0  0  0  0  0
    1.7997   -1.0786    2.6757 C   0  0  0  0  0  0  0  0  0  0  0  0
    0.7638   -0.4841    1.9551 C   0  0  0  0  0  0  0  0  0  0  0  0
    0.8066   -0.4630    0.5610 C   0  0  0  0  0  0  0  0  0  0  0  0
    1.7568   -1.0999    4.0946 N   0  0  0  0  0  4  0  0  0  0  0  0
    0.7778   -0.5785    4.6814 O   0  0  0  0  0  0  0  0  0  0  0  0
    2.6992   -1.6394    4.7235 O   0  0  0  0  0  1  0  0  0  0  0  0
   -0.4653   -1.0305   -3.8080 H   0  0  0  0  0  0  0  0  0  0  0  0
    1.1058   -1.8840   -3.9153 H   0  0  0  0  0  0  0  0  0  0  0  0
    1.0550   -0.1017   -3.8806 H   0  0  0  0  0  0  0  0  0  0  0  0
    3.7663   -2.0802    0.0934 H   0  0  0  0  0  0  0  0  0  0  0  0
    3.6925   -2.1180    2.5519 H   0  0  0  0  0  0  0  0  0  0  0  0
   -0.0827   -0.0336    2.4672 H   0  0  0  0  0  0  0  0  0  0  0  0
   -0.0066    0.0020    0.0092 H   0  0  0  0  0  0  0  0  0  0  0  0
  1  2  1  0
  2  3  1  0
  3  4  2  0
  3  5  1  0
  5 10  2  0
  5  6  1  0
  6  7  2  0
  7  8  1  0
  8  9  2  0
  9 10  1  0
  8 11  1  0
 11 12  2  0
 11 13  1  0
  1 14  1  0
  1 15  1  0
  1 16  1  0
  6 17  1  0
  7 18  1  0
  9 19  1  0
 10 20  1  0
M  CHG  2  11   1  13  -1
M  END
>  <_TriposChargeType>  (23) 
USER_CHARGES

>  <solvdG>  (23) 
-6.88

>  <fdG>  (23) 
-6.59

>  <fname>  (23) 
mobley_1328936

>  <cname>  (23) 
 methyl 4-nitrobenzoate

>  <dataset>  (23) 
FreeSolv

$$$$
S-propyl N-butyl-N-ethyl-carbamothioate
     RDKit          3D

 34 33  0  0  0  0  0  0  0  0999 V2000
   -2.7021    2.5856   -1.3198 C   0  0  0  0  0  0  0  0  0  0  0  0
   -3.0961    2.5444    0.1484 C   0  0  0  0  0  0  0  0  0  0  0  0
   -1.9931    3.1207    1.0392 C   0  0  0  0  0  0  0  0  0  0  0  0
   -2.3606    3.0925    2.5191 C   0  0  0  0  0  0  0  0  0  0  0  0
   -1.3228    3.6343    3.3520 N   0  0  0  0  0  0  0  0  0  0  0  0
   -1.2786    5.0635    3.6921 C   0  0  0  0  0  0  0  0  0  0  0  0
   -2.0404    5.3103    4.9359 C   0  0  0  0  0  0  0  0  0  0  0  0
   -0.2934    2.8129    3.8837 C   0  0  0  0  0  0  0  0  0  0  0  0
    0.6220    3.2106    4.6010 O   0  0  0  0  0  0  0  0  0  0  0  0
   -0.3735    1.1032    3.4237 S   0  0  0  0  0  0  0  0  0  0  0  0
    1.0712    0.4482    4.2875 C   0  0  0  0  0  0  0  0  0  0  0  0
    1.2197   -1.0517    4.0380 C   0  0  0  0  0  0  0  0  0  0  0  0
    2.4336   -1.6177    4.7601 C   0  0  0  0  0  0  0  0  0  0  0  0
   -3.4956    2.1719   -1.9505 H   0  0  0  0  0  0  0  0  0  0  0  0
   -2.5211    3.6180   -1.6348 H   0  0  0  0  0  0  0  0  0  0  0  0
   -1.7872    2.0112   -1.4971 H   0  0  0  0  0  0  0  0  0  0  0  0
   -4.0222    3.1141    0.2876 H   0  0  0  0  0  0  0  0  0  0  0  0
   -3.3074    1.5067    0.4299 H   0  0  0  0  0  0  0  0  0  0  0  0
   -1.0617    2.5640    0.8775 H   0  0  0  0  0  0  0  0  0  0  0  0
   -1.8027    4.1606    0.7472 H   0  0  0  0  0  0  0  0  0  0  0  0
   -2.5650    2.0722    2.8585 H   0  0  0  0  0  0  0  0  0  0  0  0
   -3.2574    3.6956    2.6933 H   0  0  0  0  0  0  0  0  0  0  0  0
   -0.2293    5.3140    3.8033 H   0  0  0  0  0  0  0  0  0  0  0  0
   -1.7011    5.5877    2.8420 H   0  0  0  0  0  0  0  0  0  0  0  0
   -2.0236    6.3701    5.2127 H   0  0  0  0  0  0  0  0  0  0  0  0
   -3.0801    4.9782    4.8417 H   0  0  0  0  0  0  0  0  0  0  0  0
   -1.5755    4.7411    5.7497 H   0  0  0  0  0  0  0  0  0  0  0  0
    0.9634    0.6463    5.3617 H   0  0  0  0  0  0  0  0  0  0  0  0
    1.9653    0.9818    3.9401 H   0  0  0  0  0  0  0  0  0  0  0  0
    0.3251   -1.5840    4.3834 H   0  0  0  0  0  0  0  0  0  0  0  0
    1.3255   -1.2489    2.9643 H   0  0  0  0  0  0  0  0  0  0  0  0
    2.5335   -2.6924    4.5768 H   0  0  0  0  0  0  0  0  0  0  0  0
    3.3466   -1.1269    4.4085 H   0  0  0  0  0  0  0  0  0  0  0  0
    2.3568   -1.4586    5.8405 H   0  0  0  0  0  0  0  0  0  0  0  0
  1  2  1  0
  2  3  1  0
  3  4  1  0
  4  5  1  0
  5  6  1  0
  6  7  1  0
  5  8  1  0
  8  9  2  0
  8 10  1  0
 10 11  1  0
 11 12  1  0
 12 13  1  0
  1 14  1  0
  1 15  1  0
  1 16  1  0
  2 17  1  0
  2 18  1  0
  3 19  1  0
  3 20  1  0
  4 21  1  0
  4 22  1  0
  6 23  1  0
  6 24  1  0
  7 25  1  0
  7 26  1  0
  7 27  1  0
 11 28  1  0
 11 29  1  0
 12 30  1  0
 12 31  1  0
 13 32  1  0
 13 33  1  0
 13 34  1  0
M  END
>  <_TriposChargeType>  (24) 
USER_CHARGES

>  <solvdG>  (24) 
-3.64

>  <fdG>  (24) 
-4.57

>  <fname>  (24) 
mobley_1352110

>  <cname>  (24) 
 pebulate

>  <dataset>  (24) 
FreeSolv

$$$$
3,5-dimethylpyridine
     RDKit          3D

 17 17  0  0  0  0  0  0  0  0999 V2000
    2.8845   -0.2657    3.6520 C   0  0  0  0  0  0  0  0  0  0  0  0
    1.6520   -0.6227    2.8997 C   0  0  0  0  0  0  0  0  0  0  0  0
    1.3879   -0.0684    1.6522 C   0  0  0  0  0  0  0  0  0  0  0  0
    0.2265   -0.4197    0.9733 C   0  0  0  0  0  0  0  0  0  0  0  0
   -0.6317   -1.3224    1.5803 C   0  0  0  0  0  0  0  0  0  0  0  0
   -0.4092   -1.8816    2.7908 N   0  0  0  0  0  0  0  0  0  0  0  0
    0.7299   -1.5161    3.4206 C   0  0  0  0  0  0  0  0  0  0  0  0
   -0.0853    0.1564   -0.3622 C   0  0  0  0  0  0  0  0  0  0  0  0
    3.6946   -0.9538    3.3918 H   0  0  0  0  0  0  0  0  0  0  0  0
    3.2009    0.7569    3.4214 H   0  0  0  0  0  0  0  0  0  0  0  0
    2.7112   -0.3151    4.7322 H   0  0  0  0  0  0  0  0  0  0  0  0
    2.0875    0.6364    1.2092 H   0  0  0  0  0  0  0  0  0  0  0  0
   -1.5535   -1.6337    1.0981 H   0  0  0  0  0  0  0  0  0  0  0  0
    0.8820   -1.9804    4.3903 H   0  0  0  0  0  0  0  0  0  0  0  0
    0.3330   -0.4713   -1.1604 H   0  0  0  0  0  0  0  0  0  0  0  0
   -1.1696    0.2394   -0.5214 H   0  0  0  0  0  0  0  0  0  0  0  0
    0.3265    1.1700   -0.4691 H   0  0  0  0  0  0  0  0  0  0  0  0
  1  2  1  0
  2  7  2  0
  2  3  1  0
  3  4  2  0
  4  5  1  0
  5  6  2  0
  6  7  1  0
  4  8  1  0
  1  9  1  0
  1 10  1  0
  1 11  1  0
  3 12  1  0
  5 13  1  0
  7 14  1  0
  8 15  1  0
  8 16  1  0
  8 17  1  0
M  END
>  <_TriposChargeType>  (25) 
USER_CHARGES

>  <solvdG>  (25) 
-4.84

>  <fdG>  (25) 
-2.87

>  <fname>  (25) 
mobley_1363784

>  <cname>  (25) 
 3,5-dimethylpyridine

>  <dataset>  (25) 
FreeSolv

$$$$
1,2,3,4,5-pentachloro-6-nitro-benzene
     RDKit          3D

 14 14  0  0  0  0  0  0  0  0999 V2000
    1.8851   -1.0363   -0.1124 C   0  0  0  0  0  0  0  0  0  0  0  0
    2.9210   -1.6309    0.6081 C   0  0  0  0  0  0  0  0  0  0  0  0
    2.8783   -1.6520    2.0022 C   0  0  0  0  0  0  0  0  0  0  0  0
    1.7997   -1.0786    2.6757 C   0  0  0  0  0  0  0  0  0  0  0  0
    0.7638   -0.4841    1.9551 C   0  0  0  0  0  0  0  0  0  0  0  0
    0.8066   -0.4630    0.5610 C   0  0  0  0  0  0  0  0  0  0  0  0
   -0.4786    0.2740   -0.3566 Cl  0  0  0  0  0  0  0  0  0  0  0  0
   -0.5854    0.2338    2.7930 Cl  0  0  0  0  0  0  0  0  0  0  0  0
    1.7467   -1.1045    4.4182 Cl  0  0  0  0  0  0  0  0  0  0  0  0
    4.1749   -2.3959    2.8985 Cl  0  0  0  0  0  0  0  0  0  0  0  0
    4.2593   -2.3421   -0.2517 Cl  0  0  0  0  0  0  0  0  0  0  0  0
    1.9282   -1.0154   -1.5413 N   0  0  0  0  0  4  0  0  0  0  0  0
    0.9853   -0.4765   -2.1605 O   0  0  0  0  0  0  0  0  0  0  0  0
    2.9073   -1.5364   -2.1181 O   0  0  0  0  0  1  0  0  0  0  0  0
  1  6  2  0
  1  2  1  0
  2  3  2  0
  3  4  1  0
  4  5  2  0
  5  6  1  0
  6  7  1  0
  5  8  1  0
  4  9  1  0
  3 10  1  0
  2 11  1  0
  1 12  1  0
 12 13  2  0
 12 14  1  0
M  CHG  2  12   1  14  -1
M  END
>  <_TriposChargeType>  (26) 
USER_CHARGES

>  <solvdG>  (26) 
-5.22

>  <fdG>  (26) 
-1.28

>  <fname>  (26) 
mobley_1396156

>  <cname>  (26) 
 pentachloronitrobenzene

>  <dataset>  (26) 
FreeSolv

$$$$
(3aR,7aR)-2-(trichloromethylsulfanyl)-3a,4,7,7a-tetrahydroisoindole-1,3-dione
     RDKit          3D

 24 25  0  0  0  0  0  0  0  0999 V2000
   -1.7044    1.3903    0.1393 C   0  0  0  0  0  0  0  0  0  0  0  0
   -1.8323    1.9213   -1.2709 C   0  0  0  0  0  0  0  0  0  0  0  0
   -1.0013    1.5780   -2.2741 C   0  0  0  0  0  0  0  0  0  0  0  0
    0.1163    0.5698   -2.1260 C   0  0  0  0  0  0  0  0  0  0  0  0
   -0.0708   -0.2188   -0.8422 C   0  0  2  0  0  0  0  0  0  0  0  0
   -0.9133   -0.9174   -0.9692 H   0  0  0  0  0  0  0  0  0  0  0  0
   -0.3471    0.7345    0.3194 C   0  0  2  0  0  0  0  0  0  0  0  0
    0.4274    1.5171    0.3614 H   0  0  0  0  0  0  0  0  0  0  0  0
   -0.0979   -0.1527    1.5119 C   0  0  0  0  0  0  0  0  0  0  0  0
   -0.5951   -0.0149    2.6177 O   0  0  0  0  0  0  0  0  0  0  0  0
    0.8595   -1.0619    1.0756 N   0  0  0  0  0  0  0  0  0  0  0  0
    1.0672   -1.0441   -0.2993 C   0  0  0  0  0  0  0  0  0  0  0  0
    1.9153   -1.6137   -0.9664 O   0  0  0  0  0  0  0  0  0  0  0  0
    1.6893   -2.0876    2.1193 S   0  0  0  0  0  0  0  0  0  0  0  0
    3.1273   -1.0467    2.5322 C   0  0  0  0  0  0  0  0  0  0  0  0
    4.1870   -1.9505    3.6638 Cl  0  0  0  0  0  0  0  0  0  0  0  0
    4.0798   -0.6534    1.0710 Cl  0  0  0  0  0  0  0  0  0  0  0  0
    2.6168    0.4668    3.3355 Cl  0  0  0  0  0  0  0  0  0  0  0  0
   -2.5189    0.6852    0.3411 H   0  0  0  0  0  0  0  0  0  0  0  0
   -1.8109    2.2149    0.8532 H   0  0  0  0  0  0  0  0  0  0  0  0
   -2.6318    2.6305   -1.4652 H   0  0  0  0  0  0  0  0  0  0  0  0
   -1.1394    2.0277   -3.2531 H   0  0  0  0  0  0  0  0  0  0  0  0
    0.1082   -0.1152   -2.9814 H   0  0  0  0  0  0  0  0  0  0  0  0
    1.0820    1.0880   -2.1397 H   0  0  0  0  0  0  0  0  0  0  0  0
  1  7  1  0
  1  2  1  0
  2  3  2  0
  3  4  1  0
  4  5  1  0
  5  6  1  6
  5 12  1  0
  5  7  1  0
  7  8  1  1
  7  9  1  0
  9 10  2  0
  9 11  1  0
 11 12  1  0
 12 13  2  0
 11 14  1  0
 14 15  1  0
 15 16  1  0
 15 17  1  0
 15 18  1  0
  1 19  1  0
  1 20  1  0
  2 21  1  0
  3 22  1  0
  4 23  1  0
  4 24  1  0
M  END
>  <_TriposChargeType>  (27) 
USER_CHARGES

>  <solvdG>  (27) 
-9.01

>  <fdG>  (27) 
-8.72

>  <fname>  (27) 
mobley_1417007

>  <cname>  (27) 
 captan

>  <dataset>  (27) 
FreeSolv

$$$$
m-xylene
     RDKit          3D

 18 18  0  0  0  0  0  0  0  0999 V2000
    1.9315   -1.0128   -1.6028 C   0  0  0  0  0  0  0  0  0  0  0  0
    1.8851   -1.0363   -0.1124 C   0  0  0  0  0  0  0  0  0  0  0  0
    2.9210   -1.6309    0.6081 C   0  0  0  0  0  0  0  0  0  0  0  0
    2.8783   -1.6520    2.0022 C   0  0  0  0  0  0  0  0  0  0  0  0
    1.7997   -1.0786    2.6757 C   0  0  0  0  0  0  0  0  0  0  0  0
    0.7638   -0.4841    1.9551 C   0  0  0  0  0  0  0  0  0  0  0  0
    0.8066   -0.4630    0.5610 C   0  0  0  0  0  0  0  0  0  0  0  0
   -0.3888    0.1291    2.6756 C   0  0  0  0  0  0  0  0  0  0  0  0
    2.4400   -0.1071   -1.9473 H   0  0  0  0  0  0  0  0  0  0  0  0
    2.4640   -1.8872   -1.9912 H   0  0  0  0  0  0  0  0  0  0  0  0
    0.9216   -1.0345   -2.0257 H   0  0  0  0  0  0  0  0  0  0  0  0
    3.7662   -2.0782    0.0922 H   0  0  0  0  0  0  0  0  0  0  0  0
    3.6860   -2.1124    2.5636 H   0  0  0  0  0  0  0  0  0  0  0  0
    1.7753   -1.0993    3.7621 H   0  0  0  0  0  0  0  0  0  0  0  0
   -0.0013   -0.0004   -0.0011 H   0  0  0  0  0  0  0  0  0  0  0  0
   -0.1875    1.1861    2.8888 H   0  0  0  0  0  0  0  0  0  0  0  0
   -1.3103    0.0633    2.0827 H   0  0  0  0  0  0  0  0  0  0  0  0
   -0.5849   -0.3860    3.6252 H   0  0  0  0  0  0  0  0  0  0  0  0
  1  2  1  0
  2  7  2  0
  2  3  1  0
  3  4  2  0
  4  5  1  0
  5  6  2  0
  6  7  1  0
  6  8  1  0
  1  9  1  0
  1 10  1  0
  1 11  1  0
  3 12  1  0
  4 13  1  0
  5 14  1  0
  7 15  1  0
  8 16  1  0
  8 17  1  0
  8 18  1  0
M  END
>  <_TriposChargeType>  (28) 
USER_CHARGES

>  <solvdG>  (28) 
-0.83

>  <fdG>  (28) 
-0.7

>  <fname>  (28) 
mobley_1424265

>  <cname>  (28) 
 m-xylene

>  <dataset>  (28) 
FreeSolv

$$$$
1-isopropyl-4-methyl-benzene
     RDKit          3D

 24 24  0  0  0  0  0  0  0  0999 V2000
    1.9305   -1.0133   -1.6029 C   0  0  0  0  0  0  0  0  0  0  0  0
    1.8851   -1.0363   -0.1124 C   0  0  0  0  0  0  0  0  0  0  0  0
    2.9210   -1.6309    0.6081 C   0  0  0  0  0  0  0  0  0  0  0  0
    2.8783   -1.6520    2.0022 C   0  0  0  0  0  0  0  0  0  0  0  0
    1.7997   -1.0786    2.6757 C   0  0  0  0  0  0  0  0  0  0  0  0
    0.7638   -0.4841    1.9551 C   0  0  0  0  0  0  0  0  0  0  0  0
    0.8066   -0.4630    0.5610 C   0  0  0  0  0  0  0  0  0  0  0  0
    1.7529   -1.1036    4.1660 C   0  0  0  0  0  0  0  0  0  0  0  0
    0.5463   -1.8957    4.7042 C   0  0  0  0  0  0  0  0  0  0  0  0
    1.7657    0.3093    4.7796 C   0  0  0  0  0  0  0  0  0  0  0  0
    2.4383   -0.1076   -1.9481 H   0  0  0  0  0  0  0  0  0  0  0  0
    2.4630   -1.8877   -1.9914 H   0  0  0  0  0  0  0  0  0  0  0  0
    0.9202   -1.0356   -2.0251 H   0  0  0  0  0  0  0  0  0  0  0  0
    3.7650   -2.0800    0.0916 H   0  0  0  0  0  0  0  0  0  0  0  0
    3.6891   -2.1183    2.5555 H   0  0  0  0  0  0  0  0  0  0  0  0
   -0.0809   -0.0359    2.4717 H   0  0  0  0  0  0  0  0  0  0  0  0
   -0.0052    0.0022    0.0080 H   0  0  0  0  0  0  0  0  0  0  0  0
    2.6519   -1.6141    4.5612 H   0  0  0  0  0  0  0  0  0  0  0  0
    0.5260   -1.9048    5.7994 H   0  0  0  0  0  0  0  0  0  0  0  0
    0.5661   -2.9367    4.3637 H   0  0  0  0  0  0  0  0  0  0  0  0
   -0.3912   -1.4471    4.3568 H   0  0  0  0  0  0  0  0  0  0  0  0
    1.7305    0.2516    5.8733 H   0  0  0  0  0  0  0  0  0  0  0  0
    0.9039    0.8983    4.4472 H   0  0  0  0  0  0  0  0  0  0  0  0
    2.6711    0.8607    4.5032 H   0  0  0  0  0  0  0  0  0  0  0  0
  1  2  1  0
  2  7  2  0
  2  3  1  0
  3  4  2  0
  4  5  1  0
  5  6  2  0
  6  7  1  0
  5  8  1  0
  8  9  1  0
  8 10  1  0
  1 11  1  0
  1 12  1  0
  1 13  1  0
  3 14  1  0
  4 15  1  0
  6 16  1  0
  7 17  1  0
  8 18  1  0
  9 19  1  0
  9 20  1  0
  9 21  1  0
 10 22  1  0
 10 23  1  0
 10 24  1  0
M  END
>  <_TriposChargeType>  (29) 
USER_CHARGES

>  <solvdG>  (29) 
-0.68

>  <fdG>  (29) 
-0.46

>  <fname>  (29) 
mobley_1449384

>  <cname>  (29) 
 1-isopropyl-4-methyl-benzene

>  <dataset>  (29) 
FreeSolv

$$$$
2,3-dichlorodibenzo-p-dioxin
     RDKit          3D

 22 24  0  0  0  0  0  0  0  0999 V2000
   -1.8584    0.7400    0.8000 C   0  0  0  0  0  0  0  0  0  0  0  0
   -1.0039   -0.2568    0.3257 C   0  0  0  0  0  0  0  0  0  0  0  0
   -1.4367   -1.5819    0.2693 C   0  0  0  0  0  0  0  0  0  0  0  0
   -2.7266   -1.9051    0.6889 C   0  0  0  0  0  0  0  0  0  0  0  0
   -3.5799   -0.9097    1.1626 C   0  0  0  0  0  0  0  0  0  0  0  0
   -3.1487    0.4152    1.2196 C   0  0  0  0  0  0  0  0  0  0  0  0
   -4.8561   -1.1828    1.5855 O   0  0  0  0  0  0  0  0  0  0  0  0
   -5.2389   -2.4982    1.5123 C   0  0  0  0  0  0  0  0  0  0  0  0
   -6.5287   -2.8214    1.9320 C   0  0  0  0  0  0  0  0  0  0  0  0
   -6.9616   -4.1465    1.8755 C   0  0  0  0  0  0  0  0  0  0  0  0
   -6.1071   -5.1433    1.4010 C   0  0  0  0  0  0  0  0  0  0  0  0
   -4.8168   -4.8184    0.9815 C   0  0  0  0  0  0  0  0  0  0  0  0
   -4.3856   -3.4936    1.0385 C   0  0  0  0  0  0  0  0  0  0  0  0
   -3.1093   -3.2205    0.6157 O   0  0  0  0  0  0  0  0  0  0  0  0
   -6.5907   -6.8007    1.3099 Cl  0  0  0  0  0  0  0  0  0  0  0  0
   -8.5703   -4.4909    2.4081 Cl  0  0  0  0  0  0  0  0  0  0  0  0
   -1.5175    1.7705    0.8440 H   0  0  0  0  0  0  0  0  0  0  0  0
    0.0006   -0.0002    0.0020 H   0  0  0  0  0  0  0  0  0  0  0  0
   -0.7659   -2.3524   -0.0999 H   0  0  0  0  0  0  0  0  0  0  0  0
   -3.8078    1.1957    1.5887 H   0  0  0  0  0  0  0  0  0  0  0  0
   -7.1869   -2.0377    2.2996 H   0  0  0  0  0  0  0  0  0  0  0  0
   -4.1427   -5.5871    0.6108 H   0  0  0  0  0  0  0  0  0  0  0  0
  1  6  2  0
  1  2  1  0
  2  3  2  0
  3  4  1  0
  4 14  1  0
  4  5  2  0
  5  6  1  0
  5  7  1  0
  7  8  1  0
  8 13  2  0
  8  9  1  0
  9 10  2  0
 10 11  1  0
 11 12  2  0
 12 13  1  0
 13 14  1  0
 11 15  1  0
 10 16  1  0
  1 17  1  0
  2 18  1  0
  3 19  1  0
  6 20  1  0
  9 21  1  0
 12 22  1  0
M  END
>  <_TriposChargeType>  (30) 
USER_CHARGES

>  <solvdG>  (30) 
-3.56

>  <fdG>  (30) 
-3.59

>  <fname>  (30) 
mobley_1469079

>  <cname>  (30) 
 2,3-dichlorodibenzo-p-dioxin

>  <dataset>  (30) 
FreeSolv

$$$$
nonan-2-one
     RDKit          3D

 28 27  0  0  0  0  0  0  0  0999 V2000
    1.0908    3.4360    2.8350 C   0  0  0  0  0  0  0  0  0  0  0  0
    0.5297    2.0332    2.6653 C   0  0  0  0  0  0  0  0  0  0  0  0
    0.7521    1.5088    1.2470 C   0  0  0  0  0  0  0  0  0  0  0  0
    0.1862    0.0975    1.0805 C   0  0  0  0  0  0  0  0  0  0  0  0
    0.4088   -0.4274   -0.3393 C   0  0  0  0  0  0  0  0  0  0  0  0
   -0.1583   -1.8402   -0.5037 C   0  0  0  0  0  0  0  0  0  0  0  0
    0.0481   -2.3927   -1.9106 C   0  0  0  0  0  0  0  0  0  0  0  0
   -0.5094   -3.7910   -2.0854 C   0  0  0  0  0  0  0  0  0  0  0  0
   -1.0633   -4.3781   -1.1557 O   0  0  0  0  0  0  0  0  0  0  0  0
   -0.3458   -4.4427   -3.4334 C   0  0  0  0  0  0  0  0  0  0  0  0
    0.9272    3.8034    3.8531 H   0  0  0  0  0  0  0  0  0  0  0  0
    0.6182    4.1346    2.1371 H   0  0  0  0  0  0  0  0  0  0  0  0
    2.1680    3.4392    2.6417 H   0  0  0  0  0  0  0  0  0  0  0  0
    1.0093    1.3642    3.3893 H   0  0  0  0  0  0  0  0  0  0  0  0
   -0.5423    2.0446    2.8945 H   0  0  0  0  0  0  0  0  0  0  0  0
    0.2740    2.1837    0.5266 H   0  0  0  0  0  0  0  0  0  0  0  0
    1.8254    1.5034    1.0214 H   0  0  0  0  0  0  0  0  0  0  0  0
    0.6646   -0.5771    1.8009 H   0  0  0  0  0  0  0  0  0  0  0  0
   -0.8872    0.1032    1.3058 H   0  0  0  0  0  0  0  0  0  0  0  0
   -0.0677    0.2524   -1.0553 H   0  0  0  0  0  0  0  0  0  0  0  0
    1.4824   -0.4341   -0.5637 H   0  0  0  0  0  0  0  0  0  0  0  0
    0.3387   -2.5111    0.2076 H   0  0  0  0  0  0  0  0  0  0  0  0
   -1.2240   -1.8405   -0.2474 H   0  0  0  0  0  0  0  0  0  0  0  0
   -0.4198   -1.7358   -2.6530 H   0  0  0  0  0  0  0  0  0  0  0  0
    1.1171   -2.4267   -2.1495 H   0  0  0  0  0  0  0  0  0  0  0  0
    0.5961   -4.9981   -3.4587 H   0  0  0  0  0  0  0  0  0  0  0  0
   -0.3304   -3.6806   -4.2156 H   0  0  0  0  0  0  0  0  0  0  0  0
   -1.1649   -5.1454   -3.6059 H   0  0  0  0  0  0  0  0  0  0  0  0
  1  2  1  0
  2  3  1  0
  3  4  1  0
  4  5  1  0
  5  6  1  0
  6  7  1  0
  7  8  1  0
  8  9  2  0
  8 10  1  0
  1 11  1  0
  1 12  1  0
  1 13  1  0
  2 14  1  0
  2 15  1  0
  3 16  1  0
  3 17  1  0
  4 18  1  0
  4 19  1  0
  5 20  1  0
  5 21  1  0
  6 22  1  0
  6 23  1  0
  7 24  1  0
  7 25  1  0
 10 26  1  0
 10 27  1  0
 10 28  1  0
M  END
>  <_TriposChargeType>  (31) 
USER_CHARGES

>  <solvdG>  (31) 
-2.49

>  <fdG>  (31) 
-2.56

>  <fname>  (31) 
mobley_1502181

>  <cname>  (31) 
 nonan-2-one

>  <dataset>  (31) 
FreeSolv

$$$$
4-methylpyridine
     RDKit          3D

 14 14  0  0  0  0  0  0  0  0999 V2000
    2.3469    0.8982    1.0445 C   0  0  0  0  0  0  0  0  0  0  0  0
    1.3879   -0.0684    1.6522 C   0  0  0  0  0  0  0  0  0  0  0  0
    0.2265   -0.4197    0.9733 C   0  0  0  0  0  0  0  0  0  0  0  0
   -0.6317   -1.3224    1.5803 C   0  0  0  0  0  0  0  0  0  0  0  0
   -0.4092   -1.8816    2.7908 N   0  0  0  0  0  0  0  0  0  0  0  0
    0.7299   -1.5161    3.4206 C   0  0  0  0  0  0  0  0  0  0  0  0
    1.6520   -0.6227    2.8997 C   0  0  0  0  0  0  0  0  0  0  0  0
    3.0861    0.3629    0.4408 H   0  0  0  0  0  0  0  0  0  0  0  0
    1.8242    1.6190    0.4071 H   0  0  0  0  0  0  0  0  0  0  0  0
    2.8691    1.4699    1.8190 H   0  0  0  0  0  0  0  0  0  0  0  0
   -0.0080   -0.0059   -0.0017 H   0  0  0  0  0  0  0  0  0  0  0  0
   -1.5505   -1.6300    1.0917 H   0  0  0  0  0  0  0  0  0  0  0  0
    0.8895   -1.9761    4.3902 H   0  0  0  0  0  0  0  0  0  0  0  0
    2.5490   -0.3683    3.4537 H   0  0  0  0  0  0  0  0  0  0  0  0
  1  2  1  0
  2  7  2  0
  2  3  1  0
  3  4  2  0
  4  5  1  0
  5  6  2  0
  6  7  1  0
  1  8  1  0
  1  9  1  0
  1 10  1  0
  3 11  1  0
  4 12  1  0
  6 13  1  0
  7 14  1  0
M  END
>  <_TriposChargeType>  (32) 
USER_CHARGES

>  <solvdG>  (32) 
-4.93

>  <fdG>  (32) 
-3.34

>  <fname>  (32) 
mobley_1520842

>  <cname>  (32) 
 4-methylpyridine

>  <dataset>  (32) 
FreeSolv

$$$$
(2S)-2-(3-fluoro-4-phenyl-phenyl)propanoic acid
     RDKit          3D

 31 32  0  0  0  0  0  0  0  0999 V2000
    1.9231    0.4070   -2.1729 C   0  0  0  0  0  0  0  0  0  0  0  0
    1.9323   -1.0136   -1.6027 C   0  0  1  0  0  0  0  0  0  0  0  0
    2.8745   -1.4892   -1.9075 H   0  0  0  0  0  0  0  0  0  0  0  0
    1.8851   -1.0363   -0.1124 C   0  0  0  0  0  0  0  0  0  0  0  0
    2.9210   -1.6309    0.6081 C   0  0  0  0  0  0  0  0  0  0  0  0
    2.8783   -1.6520    2.0022 C   0  0  0  0  0  0  0  0  0  0  0  0
    1.7997   -1.0786    2.6757 C   0  0  0  0  0  0  0  0  0  0  0  0
    0.7638   -0.4841    1.9551 C   0  0  0  0  0  0  0  0  0  0  0  0
    0.8066   -0.4630    0.5610 C   0  0  0  0  0  0  0  0  0  0  0  0
   -0.2795    0.0723    2.5878 F   0  0  0  0  0  0  0  0  0  0  0  0
    1.7601   -1.1026    4.1220 C   0  0  0  0  0  0  0  0  0  0  0  0
    0.7071   -1.7380    4.7803 C   0  0  0  0  0  0  0  0  0  0  0  0
    0.6688   -1.7612    6.1744 C   0  0  0  0  0  0  0  0  0  0  0  0
    1.6833   -1.1488    6.9103 C   0  0  0  0  0  0  0  0  0  0  0  0
    2.7361   -0.5134    6.2520 C   0  0  0  0  0  0  0  0  0  0  0  0
    2.7745   -0.4902    4.8578 C   0  0  0  0  0  0  0  0  0  0  0  0
    0.8017   -1.8308   -2.2110 C   0  0  0  0  0  0  0  0  0  0  0  0
   -0.2697   -1.3804   -2.5958 O   0  0  0  0  0  0  0  0  0  0  0  0
    1.1075   -3.1532   -2.2851 O   0  0  0  0  0  0  0  0  0  0  0  0
    1.0080    0.9486   -1.9091 H   0  0  0  0  0  0  0  0  0  0  0  0
    2.7797    0.9850   -1.8093 H   0  0  0  0  0  0  0  0  0  0  0  0
    1.9743    0.3884   -3.2672 H   0  0  0  0  0  0  0  0  0  0  0  0
    3.7651   -2.0799    0.0918 H   0  0  0  0  0  0  0  0  0  0  0  0
    3.6931   -2.1198    2.5496 H   0  0  0  0  0  0  0  0  0  0  0  0
   -0.0052    0.0022    0.0083 H   0  0  0  0  0  0  0  0  0  0  0  0
   -0.0905   -2.2207    4.2206 H   0  0  0  0  0  0  0  0  0  0  0  0
   -0.1507   -2.2569    6.6866 H   0  0  0  0  0  0  0  0  0  0  0  0
    1.6531   -1.1672    7.9958 H   0  0  0  0  0  0  0  0  0  0  0  0
    3.5253   -0.0358    6.8254 H   0  0  0  0  0  0  0  0  0  0  0  0
    3.6011    0.0104    4.3592 H   0  0  0  0  0  0  0  0  0  0  0  0
    1.9948   -3.3988   -1.9468 H   0  0  0  0  0  0  0  0  0  0  0  0
  1  2  1  0
  2  3  1  1
  2  4  1  0
  4  9  2  0
  4  5  1  0
  5  6  2  0
  6  7  1  0
  7  8  2  0
  8  9  1  0
  8 10  1  0
  7 11  1  0
 11 16  1  0
 11 12  2  0
 12 13  1  0
 13 14  2  0
 14 15  1  0
 15 16  2  0
  2 17  1  0
 17 18  2  0
 17 19  1  0
  1 20  1  0
  1 21  1  0
  1 22  1  0
  5 23  1  0
  6 24  1  0
  9 25  1  0
 12 26  1  0
 13 27  1  0
 14 28  1  0
 15 29  1  0
 16 30  1  0
 19 31  1  0
M  END
>  <_TriposChargeType>  (33) 
USER_CHARGES

>  <solvdG>  (33) 
-8.42

>  <fdG>  (33) 
-13.95

>  <fname>  (33) 
mobley_1527293

>  <cname>  (33) 
 flurbiprofen

>  <dataset>  (33) 
FreeSolv

$$$$
butane-1-thiol
     RDKit          3D

 15 14  0  0  0  0  0  0  0  0999 V2000
    0.9413   -0.0581   -0.7033 C   0  0  0  0  0  0  0  0  0  0  0  0
    0.8885   -1.4198   -1.3796 C   0  0  0  0  0  0  0  0  0  0  0  0
   -0.3384   -1.5430   -2.2871 C   0  0  0  0  0  0  0  0  0  0  0  0
   -0.4452   -2.8933   -2.9954 C   0  0  0  0  0  0  0  0  0  0  0  0
   -1.9072   -3.0193   -4.0670 S   0  0  0  0  0  0  0  0  0  0  0  0
    1.8238    0.0114   -0.0595 H   0  0  0  0  0  0  0  0  0  0  0  0
    0.0545    0.1071   -0.0829 H   0  0  0  0  0  0  0  0  0  0  0  0
    0.9973    0.7455   -1.4446 H   0  0  0  0  0  0  0  0  0  0  0  0
    0.8620   -2.2009   -0.6111 H   0  0  0  0  0  0  0  0  0  0  0  0
    1.8101   -1.5605   -1.9545 H   0  0  0  0  0  0  0  0  0  0  0  0
   -0.3459   -0.7281   -3.0219 H   0  0  0  0  0  0  0  0  0  0  0  0
   -1.2397   -1.4132   -1.6745 H   0  0  0  0  0  0  0  0  0  0  0  0
    0.4480   -3.0807   -3.5999 H   0  0  0  0  0  0  0  0  0  0  0  0
   -0.5123   -3.6910   -2.2485 H   0  0  0  0  0  0  0  0  0  0  0  0
   -1.5842   -1.9936   -4.8660 H   0  0  0  0  0  0  0  0  0  0  0  0
  1  2  1  0
  2  3  1  0
  3  4  1  0
  4  5  1  0
  1  6  1  0
  1  7  1  0
  1  8  1  0
  2  9  1  0
  2 10  1  0
  3 11  1  0
  3 12  1  0
  4 13  1  0
  4 14  1  0
  5 15  1  0
M  END
>  <_TriposChargeType>  (34) 
USER_CHARGES

>  <solvdG>  (34) 
-0.99

>  <fdG>  (34) 
-0.17

>  <fname>  (34) 
mobley_1563176

>  <cname>  (34) 
 butane-1-thiol

>  <dataset>  (34) 
FreeSolv

$$$$
2,3-dimethylphenol
     RDKit          3D

 19 19  0  0  0  0  0  0  0  0999 V2000
    1.9548   -1.0271   -1.6044 C   0  0  0  0  0  0  0  0  0  0  0  0
    1.8851   -1.0363   -0.1124 C   0  0  0  0  0  0  0  0  0  0  0  0
    2.9210   -1.6309    0.6081 C   0  0  0  0  0  0  0  0  0  0  0  0
    2.8783   -1.6520    2.0022 C   0  0  0  0  0  0  0  0  0  0  0  0
    1.7997   -1.0786    2.6757 C   0  0  0  0  0  0  0  0  0  0  0  0
    0.7638   -0.4841    1.9551 C   0  0  0  0  0  0  0  0  0  0  0  0
    0.8066   -0.4630    0.5610 C   0  0  0  0  0  0  0  0  0  0  0  0
   -0.3073    0.1742   -0.2066 C   0  0  0  0  0  0  0  0  0  0  0  0
   -0.2820    0.0696    2.6307 O   0  0  0  0  0  0  0  0  0  0  0  0
    2.4686   -0.1248   -1.9497 H   0  0  0  0  0  0  0  0  0  0  0  0
    2.4932   -1.9053   -1.9761 H   0  0  0  0  0  0  0  0  0  0  0  0
    0.9516   -1.0531   -2.0428 H   0  0  0  0  0  0  0  0  0  0  0  0
    3.7659   -2.0799    0.0927 H   0  0  0  0  0  0  0  0  0  0  0  0
    3.6855   -2.1134    2.5635 H   0  0  0  0  0  0  0  0  0  0  0  0
    1.7722   -1.0991    3.7619 H   0  0  0  0  0  0  0  0  0  0  0  0
   -0.0936    1.2359   -0.3718 H   0  0  0  0  0  0  0  0  0  0  0  0
   -0.4445   -0.3119   -1.1796 H   0  0  0  0  0  0  0  0  0  0  0  0
   -1.2582    0.0871    0.3324 H   0  0  0  0  0  0  0  0  0  0  0  0
   -0.1544   -0.0323    3.5868 H   0  0  0  0  0  0  0  0  0  0  0  0
  1  2  1  0
  2  7  2  0
  2  3  1  0
  3  4  2  0
  4  5  1  0
  5  6  2  0
  6  7  1  0
  7  8  1  0
  6  9  1  0
  1 10  1  0
  1 11  1  0
  1 12  1  0
  3 13  1  0
  4 14  1  0
  5 15  1  0
  8 16  1  0
  8 17  1  0
  8 18  1  0
  9 19  1  0
M  END
>  <_TriposChargeType>  (35) 
USER_CHARGES

>  <solvdG>  (35) 
-6.16

>  <fdG>  (35) 
-5.15

>  <fname>  (35) 
mobley_1571523

>  <cname>  (35) 
 2,3-dimethylphenol

>  <dataset>  (35) 
FreeSolv

$$$$
ethyl hexanoate
     RDKit          3D

 26 25  0  0  0  0  0  0  0  0999 V2000
    0.0401    1.0640    0.1435 C   0  0  0  0  0  0  0  0  0  0  0  0
   -0.1604    1.4356    1.6042 C   0  0  0  0  0  0  0  0  0  0  0  0
    0.9236    0.8238    2.4919 C   0  0  0  0  0  0  0  0  0  0  0  0
    0.7154    1.2021    3.9617 C   0  0  0  0  0  0  0  0  0  0  0  0
    1.7849    0.6046    4.8759 C   0  0  0  0  0  0  0  0  0  0  0  0
    1.5949    0.9681    6.3320 C   0  0  0  0  0  0  0  0  0  0  0  0
    0.6915    1.6656    6.7723 O   0  0  0  0  0  0  0  0  0  0  0  0
    2.6094    0.4176    7.0627 O   0  0  0  0  0  0  0  0  0  0  0  0
    2.5835    0.7017    8.4652 C   0  0  0  0  0  0  0  0  0  0  0  0
    3.7649    0.0226    9.1161 C   0  0  0  0  0  0  0  0  0  0  0  0
   -0.7401    1.5061   -0.4843 H   0  0  0  0  0  0  0  0  0  0  0  0
    1.0123    1.4120   -0.2199 H   0  0  0  0  0  0  0  0  0  0  0  0
    0.0006   -0.0227    0.0202 H   0  0  0  0  0  0  0  0  0  0  0  0
   -1.1480    1.0895    1.9306 H   0  0  0  0  0  0  0  0  0  0  0  0
   -0.1501    2.5273    1.7021 H   0  0  0  0  0  0  0  0  0  0  0  0
    0.9135   -0.2663    2.3780 H   0  0  0  0  0  0  0  0  0  0  0  0
    1.9090    1.1730    2.1600 H   0  0  0  0  0  0  0  0  0  0  0  0
    0.7515    2.2945    4.0546 H   0  0  0  0  0  0  0  0  0  0  0  0
   -0.2825    0.8871    4.2894 H   0  0  0  0  0  0  0  0  0  0  0  0
    1.7882   -0.4867    4.7759 H   0  0  0  0  0  0  0  0  0  0  0  0
    2.7677    0.9842    4.5740 H   0  0  0  0  0  0  0  0  0  0  0  0
    2.6338    1.7832    8.5949 H   0  0  0  0  0  0  0  0  0  0  0  0
    1.6438    0.3267    8.8718 H   0  0  0  0  0  0  0  0  0  0  0  0
    3.7752    0.2200   10.1916 H   0  0  0  0  0  0  0  0  0  0  0  0
    3.7293   -1.0599    8.9556 H   0  0  0  0  0  0  0  0  0  0  0  0
    4.7058    0.3778    8.6827 H   0  0  0  0  0  0  0  0  0  0  0  0
  1  2  1  0
  2  3  1  0
  3  4  1  0
  4  5  1  0
  5  6  1  0
  6  7  2  0
  6  8  1  0
  8  9  1  0
  9 10  1  0
  1 11  1  0
  1 12  1  0
  1 13  1  0
  2 14  1  0
  2 15  1  0
  3 16  1  0
  3 17  1  0
  4 18  1  0
  4 19  1  0
  5 20  1  0
  5 21  1  0
  9 22  1  0
  9 23  1  0
 10 24  1  0
 10 25  1  0
 10 26  1  0
M  END
>  <_TriposChargeType>  (36) 
USER_CHARGES

>  <solvdG>  (36) 
-2.23

>  <fdG>  (36) 
-2.93

>  <fname>  (36) 
mobley_1592519

>  <cname>  (36) 
 ethyl hexanoate

>  <dataset>  (36) 
FreeSolv

$$$$
2-isopropoxypropane
     RDKit          3D

 21 20  0  0  0  0  0  0  0  0999 V2000
    0.2247   -0.0420    1.7545 C   0  0  0  0  0  0  0  0  0  0  0  0
    1.3532    0.9191    1.4130 C   0  0  0  0  0  0  0  0  0  0  0  0
    2.1168    0.4790    0.1733 C   0  0  0  0  0  0  0  0  0  0  0  0
    0.8123    2.2184    1.1940 O   0  0  0  0  0  0  0  0  0  0  0  0
    1.7303    3.2332    1.5735 C   0  0  0  0  0  0  0  0  0  0  0  0
    1.5286    4.4539    0.6863 C   0  0  0  0  0  0  0  0  0  0  0  0
    1.5331    3.5678    3.0456 C   0  0  0  0  0  0  0  0  0  0  0  0
   -0.3178    0.2837    2.6473 H   0  0  0  0  0  0  0  0  0  0  0  0
   -0.4824   -0.1110    0.9209 H   0  0  0  0  0  0  0  0  0  0  0  0
    0.6072   -1.0542    1.9266 H   0  0  0  0  0  0  0  0  0  0  0  0
    2.0424    0.9895    2.2609 H   0  0  0  0  0  0  0  0  0  0  0  0
    2.9259    1.1766   -0.0636 H   0  0  0  0  0  0  0  0  0  0  0  0
    1.4430    0.4190   -0.6881 H   0  0  0  0  0  0  0  0  0  0  0  0
    2.5445   -0.5206    0.3081 H   0  0  0  0  0  0  0  0  0  0  0  0
    2.7420    2.8389    1.4234 H   0  0  0  0  0  0  0  0  0  0  0  0
    2.2211    5.2590    0.9505 H   0  0  0  0  0  0  0  0  0  0  0  0
    1.6845    4.1890   -0.3650 H   0  0  0  0  0  0  0  0  0  0  0  0
    0.5037    4.8329    0.7661 H   0  0  0  0  0  0  0  0  0  0  0  0
    2.2257    4.3485    3.3746 H   0  0  0  0  0  0  0  0  0  0  0  0
    1.6920    2.6765    3.6621 H   0  0  0  0  0  0  0  0  0  0  0  0
    0.5085    3.9046    3.2380 H   0  0  0  0  0  0  0  0  0  0  0  0
  1  2  1  0
  2  3  1  0
  2  4  1  0
  4  5  1  0
  5  6  1  0
  5  7  1  0
  1  8  1  0
  1  9  1  0
  1 10  1  0
  2 11  1  0
  3 12  1  0
  3 13  1  0
  3 14  1  0
  5 15  1  0
  6 16  1  0
  6 17  1  0
  6 18  1  0
  7 19  1  0
  7 20  1  0
  7 21  1  0
M  END
>  <_TriposChargeType>  (37) 
USER_CHARGES

>  <solvdG>  (37) 
-0.53

>  <fdG>  (37) 
-0.18

>  <fname>  (37) 
mobley_1615431

>  <cname>  (37) 
 2-isopropoxypropane

>  <dataset>  (37) 
FreeSolv

$$$$
methanol
     RDKit          3D

  6  5  0  0  0  0  0  0  0  0999 V2000
    0.2832    0.7683    0.7238 C   0  0  0  0  0  0  0  0  0  0  0  0
   -0.3112    2.0013    0.3621 O   0  0  0  0  0  0  0  0  0  0  0  0
   -0.0653    0.4722    1.7163 H   0  0  0  0  0  0  0  0  0  0  0  0
    1.3711    0.8735    0.7244 H   0  0  0  0  0  0  0  0  0  0  0  0
   -0.0069    0.0068   -0.0039 H   0  0  0  0  0  0  0  0  0  0  0  0
    0.0219    2.2303   -0.5224 H   0  0  0  0  0  0  0  0  0  0  0  0
  1  2  1  0
  1  3  1  0
  1  4  1  0
  1  5  1  0
  2  6  1  0
M  END
>  <_TriposChargeType>  (38) 
USER_CHARGES

>  <solvdG>  (38) 
-5.1

>  <fdG>  (38) 
-3.49

>  <fname>  (38) 
mobley_1636752

>  <cname>  (38) 
 methanol

>  <dataset>  (38) 
FreeSolv

$$$$
2-methylpropan-2-ol
     RDKit          3D

 15 14  0  0  0  0  0  0  0  0999 V2000
   -0.4645   -0.0646    0.9894 C   0  0  0  0  0  0  0  0  0  0  0  0
    0.5609   -0.3988    2.0719 C   0  0  0  0  0  0  0  0  0  0  0  0
    1.6273    0.6910    2.1567 C   0  0  0  0  0  0  0  0  0  0  0  0
    1.2036   -1.7604    1.8118 C   0  0  0  0  0  0  0  0  0  0  0  0
   -0.1082   -0.4451    3.3327 O   0  0  0  0  0  0  0  0  0  0  0  0
   -1.2317   -0.8445    0.9253 H   0  0  0  0  0  0  0  0  0  0  0  0
   -0.9578    0.8935    1.1830 H   0  0  0  0  0  0  0  0  0  0  0  0
    0.0103   -0.0162    0.0027 H   0  0  0  0  0  0  0  0  0  0  0  0
    2.3651    0.4554    2.9322 H   0  0  0  0  0  0  0  0  0  0  0  0
    1.1816    1.6524    2.4367 H   0  0  0  0  0  0  0  0  0  0  0  0
    2.1531    0.8168    1.2047 H   0  0  0  0  0  0  0  0  0  0  0  0
    1.9391   -2.0003    2.5882 H   0  0  0  0  0  0  0  0  0  0  0  0
    0.4566   -2.5604    1.7845 H   0  0  0  0  0  0  0  0  0  0  0  0
    1.7476   -1.7592    0.8603 H   0  0  0  0  0  0  0  0  0  0  0  0
   -0.7827   -1.1368    3.2589 H   0  0  0  0  0  0  0  0  0  0  0  0
  1  2  1  0
  2  3  1  0
  2  4  1  0
  2  5  1  0
  1  6  1  0
  1  7  1  0
  1  8  1  0
  3  9  1  0
  3 10  1  0
  3 11  1  0
  4 12  1  0
  4 13  1  0
  4 14  1  0
  5 15  1  0
M  END
>  <_TriposChargeType>  (39) 
USER_CHARGES

>  <solvdG>  (39) 
-4.47

>  <fdG>  (39) 
-3.29

>  <fname>  (39) 
mobley_1650157

>  <cname>  (39) 
 2-methylpropan-2-ol

>  <dataset>  (39) 
FreeSolv

$$$$
morpholine
     RDKit          3D

 15 15  0  0  0  0  0  0  0  0999 V2000
    0.2626   -1.3894   -0.0634 C   0  0  0  0  0  0  0  0  0  0  0  0
    1.2055   -0.3403   -0.6416 C   0  0  0  0  0  0  0  0  0  0  0  0
    1.0983    0.8808    0.0925 O   0  0  0  0  0  0  0  0  0  0  0  0
   -0.2374    1.3863    0.0488 C   0  0  0  0  0  0  0  0  0  0  0  0
   -1.2071    0.3696    0.6399 C   0  0  0  0  0  0  0  0  0  0  0  0
   -1.1220   -0.9071   -0.0762 N   0  0  0  0  0  0  0  0  0  0  0  0
    0.5532   -1.6269    0.9672 H   0  0  0  0  0  0  0  0  0  0  0  0
    0.3306   -2.3116   -0.6495 H   0  0  0  0  0  0  0  0  0  0  0  0
    2.2415   -0.6854   -0.5648 H   0  0  0  0  0  0  0  0  0  0  0  0
    0.9963   -0.1487   -1.7010 H   0  0  0  0  0  0  0  0  0  0  0  0
   -0.2629    2.3114    0.6333 H   0  0  0  0  0  0  0  0  0  0  0  0
   -0.4980    1.6393   -0.9861 H   0  0  0  0  0  0  0  0  0  0  0  0
   -0.9783    0.2057    1.7000 H   0  0  0  0  0  0  0  0  0  0  0  0
   -2.2304    0.7532    0.5766 H   0  0  0  0  0  0  0  0  0  0  0  0
   -1.7253   -1.5926    0.3771 H   0  0  0  0  0  0  0  0  0  0  0  0
  1  6  1  0
  1  2  1  0
  2  3  1  0
  3  4  1  0
  4  5  1  0
  5  6  1  0
  1  7  1  0
  1  8  1  0
  2  9  1  0
  2 10  1  0
  4 11  1  0
  4 12  1  0
  5 13  1  0
  5 14  1  0
  6 15  1  0
M  END
>  <_TriposChargeType>  (40) 
USER_CHARGES

>  <solvdG>  (40) 
-7.17

>  <fdG>  (40) 
-6.12

>  <fname>  (40) 
mobley_1659169

>  <cname>  (40) 
 morpholine

>  <dataset>  (40) 
FreeSolv

$$$$
but-1-ene
     RDKit          3D

 12 11  0  0  0  0  0  0  0  0999 V2000
    4.0768   -1.5617    0.7355 C   0  0  0  0  0  0  0  0  0  0  0  0
    2.9342   -1.8743   -0.2181 C   0  0  0  0  0  0  0  0  0  0  0  0
    1.9491   -0.7461   -0.2814 C   0  0  0  0  0  0  0  0  0  0  0  0
    0.8849   -0.6363    0.5216 C   0  0  0  0  0  0  0  0  0  0  0  0
    4.7831   -2.3973    0.7664 H   0  0  0  0  0  0  0  0  0  0  0  0
    3.7080   -1.3925    1.7527 H   0  0  0  0  0  0  0  0  0  0  0  0
    4.6253   -0.6683    0.4182 H   0  0  0  0  0  0  0  0  0  0  0  0
    2.4469   -2.8051    0.0956 H   0  0  0  0  0  0  0  0  0  0  0  0
    3.3360   -2.0474   -1.2230 H   0  0  0  0  0  0  0  0  0  0  0  0
    2.1132    0.0190   -1.0361 H   0  0  0  0  0  0  0  0  0  0  0  0
    0.1967    0.1977    0.4413 H   0  0  0  0  0  0  0  0  0  0  0  0
    0.6872   -1.3890    1.2771 H   0  0  0  0  0  0  0  0  0  0  0  0
  1  2  1  0
  2  3  1  0
  3  4  2  3
  1  5  1  0
  1  6  1  0
  1  7  1  0
  2  8  1  0
  2  9  1  0
  3 10  1  0
  4 11  1  0
  4 12  1  0
M  END
>  <_TriposChargeType>  (41) 
USER_CHARGES

>  <solvdG>  (41) 
1.38

>  <fdG>  (41) 
2.37

>  <fname>  (41) 
mobley_1662128

>  <cname>  (41) 
 but-1-ene

>  <dataset>  (41) 
FreeSolv

$$$$
hex-1-yne
     RDKit          3D

 16 15  0  0  0  0  0  0  0  0999 V2000
   -1.8672   -1.1614    1.1538 C   0  0  0  0  0  0  0  0  0  0  0  0
   -0.3928   -0.8182    1.0126 C   0  0  0  0  0  0  0  0  0  0  0  0
   -0.1448    0.1090   -0.1772 C   0  0  0  0  0  0  0  0  0  0  0  0
    1.3383    0.4520   -0.3161 C   0  0  0  0  0  0  0  0  0  0  0  0
    1.5710    1.3432   -1.4610 C   0  0  0  0  0  0  0  0  0  0  0  0
    1.7645    2.0714   -2.3957 C   0  0  0  0  0  0  0  0  0  0  0  0
   -2.0216   -1.8250    2.0104 H   0  0  0  0  0  0  0  0  0  0  0  0
   -2.2391   -1.6700    0.2586 H   0  0  0  0  0  0  0  0  0  0  0  0
   -2.4668   -0.2591    1.3107 H   0  0  0  0  0  0  0  0  0  0  0  0
   -0.0449   -0.3404    1.9359 H   0  0  0  0  0  0  0  0  0  0  0  0
    0.1815   -1.7438    0.8895 H   0  0  0  0  0  0  0  0  0  0  0  0
   -0.5029   -0.3697   -1.0978 H   0  0  0  0  0  0  0  0  0  0  0  0
   -0.7289    1.0302   -0.0538 H   0  0  0  0  0  0  0  0  0  0  0  0
    1.9218   -0.4672   -0.4442 H   0  0  0  0  0  0  0  0  0  0  0  0
    1.6956    0.9346    0.6011 H   0  0  0  0  0  0  0  0  0  0  0  0
    1.9358    2.7177   -3.2246 H   0  0  0  0  0  0  0  0  0  0  0  0
  1  2  1  0
  2  3  1  0
  3  4  1  0
  4  5  1  0
  5  6  3  0
  1  7  1  0
  1  8  1  0
  1  9  1  0
  2 10  1  0
  2 11  1  0
  3 12  1  0
  3 13  1  0
  4 14  1  0
  4 15  1  0
  6 16  1  0
M  END
>  <_TriposChargeType>  (42) 
USER_CHARGES

>  <solvdG>  (42) 
0.29

>  <fdG>  (42) 
0.55

>  <fname>  (42) 
mobley_1674094

>  <cname>  (42) 
 hex-1-yne

>  <dataset>  (42) 
FreeSolv

$$$$
methylsulfonylmethane
     RDKit          3D

 11 10  0  0  0  0  0  0  0  0999 V2000
    1.0616    0.2382    0.0927 C   0  0  0  0  0  0  0  0  0  0  0  0
    1.2749    1.2694    1.5227 S   0  0  0  0  0  6  0  0  0  0  0  0
    0.9469    0.4790    2.6930 O   0  0  0  0  0  0  0  0  0  0  0  0
    0.6108    2.5316    1.2629 O   0  0  0  0  0  0  0  0  0  0  0  0
    3.0251    1.5695    1.5420 C   0  0  0  0  0  0  0  0  0  0  0  0
    1.3063    0.8246   -0.7943 H   0  0  0  0  0  0  0  0  0  0  0  0
    1.7323   -0.6177    0.1823 H   0  0  0  0  0  0  0  0  0  0  0  0
    0.0223   -0.0919    0.0583 H   0  0  0  0  0  0  0  0  0  0  0  0
    3.2389    2.2013    2.3987 H   0  0  0  0  0  0  0  0  0  0  0  0
    3.5208    0.6074    1.6272 H   0  0  0  0  0  0  0  0  0  0  0  0
    3.2819    2.0656    0.6112 H   0  0  0  0  0  0  0  0  0  0  0  0
  1  2  1  0
  2  3  2  0
  2  4  2  0
  2  5  1  0
  1  6  1  0
  1  7  1  0
  1  8  1  0
  5  9  1  0
  5 10  1  0
  5 11  1  0
M  END
>  <_TriposChargeType>  (43) 
USER_CHARGES

>  <solvdG>  (43) 
-10.08

>  <fdG>  (43) 
-10.56

>  <fname>  (43) 
mobley_1708457

>  <cname>  (43) 
 methylsulfonylmethane

>  <dataset>  (43) 
FreeSolv

$$$$
methyl formate
     RDKit          3D

  8  7  0  0  0  0  0  0  0  0999 V2000
    0.3499   -1.0344    0.0714 C   0  0  0  0  0  0  0  0  0  0  0  0
    1.5789   -1.1921   -0.6447 O   0  0  0  0  0  0  0  0  0  0  0  0
    1.5117   -0.9362   -1.9766 C   0  0  0  0  0  0  0  0  0  0  0  0
    0.5335   -0.5918   -2.6212 O   0  0  0  0  0  0  0  0  0  0  0  0
    0.5111   -1.2625    1.1278 H   0  0  0  0  0  0  0  0  0  0  0  0
   -0.4048   -1.7055   -0.3463 H   0  0  0  0  0  0  0  0  0  0  0  0
    0.0106   -0.0006   -0.0282 H   0  0  0  0  0  0  0  0  0  0  0  0
    2.5112   -1.0903   -2.4120 H   0  0  0  0  0  0  0  0  0  0  0  0
  1  2  1  0
  2  3  1  0
  3  4  2  0
  1  5  1  0
  1  6  1  0
  1  7  1  0
  3  8  1  0
M  END
>  <_TriposChargeType>  (44) 
USER_CHARGES

>  <solvdG>  (44) 
-2.78

>  <fdG>  (44) 
-4.03

>  <fname>  (44) 
mobley_1717215

>  <cname>  (44) 
 methyl formate

>  <dataset>  (44) 
FreeSolv

$$$$
ethyl butanoate
     RDKit          3D

 20 19  0  0  0  0  0  0  0  0999 V2000
   -0.3785   -0.6982    0.7531 C   0  0  0  0  0  0  0  0  0  0  0  0
    0.4050   -0.5787    2.0501 C   0  0  0  0  0  0  0  0  0  0  0  0
    1.8852   -0.8881    1.8405 C   0  0  0  0  0  0  0  0  0  0  0  0
    2.6749   -0.7723    3.1243 C   0  0  0  0  0  0  0  0  0  0  0  0
    2.2096   -0.4689    4.2142 O   0  0  0  0  0  0  0  0  0  0  0  0
    3.9847   -1.0619    2.8650 O   0  0  0  0  0  0  0  0  0  0  0  0
    4.8650   -0.9953    3.9916 C   0  0  0  0  0  0  0  0  0  0  0  0
    6.2615   -1.3408    3.5324 C   0  0  0  0  0  0  0  0  0  0  0  0
   -1.4355   -0.4725    0.9264 H   0  0  0  0  0  0  0  0  0  0  0  0
   -0.0006    0.0012    0.0005 H   0  0  0  0  0  0  0  0  0  0  0  0
   -0.3102   -1.7121    0.3458 H   0  0  0  0  0  0  0  0  0  0  0  0
   -0.0189   -1.2648    2.7932 H   0  0  0  0  0  0  0  0  0  0  0  0
    0.2875    0.4347    2.4522 H   0  0  0  0  0  0  0  0  0  0  0  0
    2.3099   -0.1867    1.1135 H   0  0  0  0  0  0  0  0  0  0  0  0
    1.9989   -1.9095    1.4604 H   0  0  0  0  0  0  0  0  0  0  0  0
    4.8254    0.0167    4.3957 H   0  0  0  0  0  0  0  0  0  0  0  0
    4.5131   -1.7041    4.7417 H   0  0  0  0  0  0  0  0  0  0  0  0
    6.9616   -1.2992    4.3715 H   0  0  0  0  0  0  0  0  0  0  0  0
    6.2913   -2.3448    3.0965 H   0  0  0  0  0  0  0  0  0  0  0  0
    6.5993   -0.6465    2.7558 H   0  0  0  0  0  0  0  0  0  0  0  0
  1  2  1  0
  2  3  1  0
  3  4  1  0
  4  5  2  0
  4  6  1  0
  6  7  1  0
  7  8  1  0
  1  9  1  0
  1 10  1  0
  1 11  1  0
  2 12  1  0
  2 13  1  0
  3 14  1  0
  3 15  1  0
  7 16  1  0
  7 17  1  0
  8 18  1  0
  8 19  1  0
  8 20  1  0
M  END
>  <_TriposChargeType>  (45) 
USER_CHARGES

>  <solvdG>  (45) 
-2.49

>  <fdG>  (45) 
-3.38

>  <fname>  (45) 
mobley_1722522

>  <cname>  (45) 
 ethyl butanoate

>  <dataset>  (45) 
FreeSolv

$$$$
1,1,2,2,3,3,4,4-octafluorocyclobutane
     RDKit          3D

 12 12  0  0  0  0  0  0  0  0999 V2000
    0.8301   -0.6946    0.0035 C   0  0  0  0  0  0  0  0  0  0  0  0
   -0.2835   -0.2971    1.0015 C   0  0  0  0  0  0  0  0  0  0  0  0
   -0.5974    0.8996    0.0723 C   0  0  0  0  0  0  0  0  0  0  0  0
    0.0509    0.0921   -1.0772 C   0  0  0  0  0  0  0  0  0  0  0  0
    0.8056    0.8051   -1.9415 F   0  0  0  0  0  0  0  0  0  0  0  0
   -0.8072   -0.6442   -1.8201 F   0  0  0  0  0  0  0  0  0  0  0  0
    0.0292    2.0561    0.3895 F   0  0  0  0  0  0  0  0  0  0  0  0
   -1.9069    1.1929   -0.0833 F   0  0  0  0  0  0  0  0  0  0  0  0
   -1.2835   -1.1982    1.1390 F   0  0  0  0  0  0  0  0  0  0  0  0
    0.1319    0.0210    2.2470 F   0  0  0  0  0  0  0  0  0  0  0  0
    0.9694   -2.0193   -0.2222 F   0  0  0  0  0  0  0  0  0  0  0  0
    2.0615   -0.2135    0.2915 F   0  0  0  0  0  0  0  0  0  0  0  0
  1  4  1  0
  1  2  1  0
  2  3  1  0
  3  4  1  0
  4  5  1  0
  4  6  1  0
  3  7  1  0
  3  8  1  0
  2  9  1  0
  2 10  1  0
  1 11  1  0
  1 12  1  0
M  END
>  <_TriposChargeType>  (46) 
USER_CHARGES

>  <solvdG>  (46) 
3.43

>  <fdG>  (46) 
3.08

>  <fname>  (46) 
mobley_1723043

>  <cname>  (46) 
 octafluorocyclobutane

>  <dataset>  (46) 
FreeSolv

$$$$
benzamide
     RDKit          3D

 16 16  0  0  0  0  0  0  0  0999 V2000
    1.8851   -1.0363   -0.1124 C   0  0  0  0  0  0  0  0  0  0  0  0
    2.9210   -1.6309    0.6081 C   0  0  0  0  0  0  0  0  0  0  0  0
    2.8783   -1.6520    2.0022 C   0  0  0  0  0  0  0  0  0  0  0  0
    1.7997   -1.0786    2.6757 C   0  0  0  0  0  0  0  0  0  0  0  0
    0.7638   -0.4841    1.9551 C   0  0  0  0  0  0  0  0  0  0  0  0
    0.8066   -0.4630    0.5610 C   0  0  0  0  0  0  0  0  0  0  0  0
    1.7551   -1.1006    4.1291 C   0  0  0  0  0  0  0  0  0  0  0  0
    0.7986   -0.6120    4.7558 O   0  0  0  0  0  0  0  0  0  0  0  0
    2.8135   -1.7059    4.8004 N   0  0  0  0  0  0  0  0  0  0  0  0
    1.9184   -1.0198   -1.1978 H   0  0  0  0  0  0  0  0  0  0  0  0
    3.7607   -2.0775    0.0838 H   0  0  0  0  0  0  0  0  0  0  0  0
    3.6911   -2.1179    2.5534 H   0  0  0  0  0  0  0  0  0  0  0  0
   -0.0814   -0.0344    2.4697 H   0  0  0  0  0  0  0  0  0  0  0  0
    0.0002    0.0000   -0.0002 H   0  0  0  0  0  0  0  0  0  0  0  0
    3.5921   -2.1393    4.3160 H   0  0  0  0  0  0  0  0  0  0  0  0
    2.8323   -1.7676    5.8133 H   0  0  0  0  0  0  0  0  0  0  0  0
  1  6  2  0
  1  2  1  0
  2  3  2  0
  3  4  1  0
  4  5  2  0
  5  6  1  0
  4  7  1  0
  7  8  2  0
  7  9  1  0
  1 10  1  0
  2 11  1  0
  3 12  1  0
  5 13  1  0
  6 14  1  0
  9 15  1  0
  9 16  1  0
M  END
>  <_TriposChargeType>  (47) 
USER_CHARGES

>  <solvdG>  (47) 
-11.0

>  <fdG>  (47) 
-10.41

>  <fname>  (47) 
mobley_1728386

>  <cname>  (47) 
 benzamide

>  <dataset>  (47) 
FreeSolv

$$$$
dibenzo-p-dioxin
     RDKit          3D

 22 24  0  0  0  0  0  0  0  0999 V2000
   -1.8584    0.7400    0.8000 C   0  0  0  0  0  0  0  0  0  0  0  0
   -1.0039   -0.2568    0.3257 C   0  0  0  0  0  0  0  0  0  0  0  0
   -1.4367   -1.5819    0.2693 C   0  0  0  0  0  0  0  0  0  0  0  0
   -2.7266   -1.9051    0.6889 C   0  0  0  0  0  0  0  0  0  0  0  0
   -3.5799   -0.9097    1.1626 C   0  0  0  0  0  0  0  0  0  0  0  0
   -3.1487    0.4152    1.2196 C   0  0  0  0  0  0  0  0  0  0  0  0
   -4.8561   -1.1828    1.5855 O   0  0  0  0  0  0  0  0  0  0  0  0
   -5.2389   -2.4982    1.5123 C   0  0  0  0  0  0  0  0  0  0  0  0
   -6.5287   -2.8214    1.9320 C   0  0  0  0  0  0  0  0  0  0  0  0
   -6.9616   -4.1465    1.8755 C   0  0  0  0  0  0  0  0  0  0  0  0
   -6.1071   -5.1433    1.4010 C   0  0  0  0  0  0  0  0  0  0  0  0
   -4.8168   -4.8184    0.9815 C   0  0  0  0  0  0  0  0  0  0  0  0
   -4.3856   -3.4936    1.0385 C   0  0  0  0  0  0  0  0  0  0  0  0
   -3.1093   -3.2205    0.6157 O   0  0  0  0  0  0  0  0  0  0  0  0
   -1.5174    1.7703    0.8424 H   0  0  0  0  0  0  0  0  0  0  0  0
    0.0001   -0.0001    0.0005 H   0  0  0  0  0  0  0  0  0  0  0  0
   -0.7661   -2.3525   -0.1007 H   0  0  0  0  0  0  0  0  0  0  0  0
   -3.8080    1.1963    1.5874 H   0  0  0  0  0  0  0  0  0  0  0  0
   -7.1990   -2.0506    2.3025 H   0  0  0  0  0  0  0  0  0  0  0  0
   -7.9656   -4.4034    2.2014 H   0  0  0  0  0  0  0  0  0  0  0  0
   -6.4481   -6.1739    1.3584 H   0  0  0  0  0  0  0  0  0  0  0  0
   -4.1573   -5.5992    0.6131 H   0  0  0  0  0  0  0  0  0  0  0  0
  1  6  2  0
  1  2  1  0
  2  3  2  0
  3  4  1  0
  4 14  1  0
  4  5  2  0
  5  6  1  0
  5  7  1  0
  7  8  1  0
  8 13  2  0
  8  9  1  0
  9 10  2  0
 10 11  1  0
 11 12  2  0
 12 13  1  0
 13 14  1  0
  1 15  1  0
  2 16  1  0
  3 17  1  0
  6 18  1  0
  9 19  1  0
 10 20  1  0
 11 21  1  0
 12 22  1  0
M  END
>  <_TriposChargeType>  (48) 
USER_CHARGES

>  <solvdG>  (48) 
-3.15

>  <fdG>  (48) 
-4.9

>  <fname>  (48) 
mobley_172879

>  <cname>  (48) 
 dibenzo-p-dioxin

>  <dataset>  (48) 
FreeSolv

$$$$
4-bromophenol
     RDKit          3D

 13 13  0  0  0  0  0  0  0  0999 V2000
    1.8851   -1.0363   -0.1124 C   0  0  0  0  0  0  0  0  0  0  0  0
    2.9210   -1.6309    0.6081 C   0  0  0  0  0  0  0  0  0  0  0  0
    2.8783   -1.6520    2.0022 C   0  0  0  0  0  0  0  0  0  0  0  0
    1.7997   -1.0786    2.6757 C   0  0  0  0  0  0  0  0  0  0  0  0
    0.7638   -0.4841    1.9551 C   0  0  0  0  0  0  0  0  0  0  0  0
    0.8066   -0.4630    0.5610 C   0  0  0  0  0  0  0  0  0  0  0  0
   -0.2039    0.1168   -0.1428 O   0  0  0  0  0  0  0  0  0  0  0  0
    4.2813   -2.4580    2.9784 Br  0  0  0  0  0  0  0  0  0  0  0  0
    1.9241   -1.0238   -1.1981 H   0  0  0  0  0  0  0  0  0  0  0  0
    3.7542   -2.0740    0.0683 H   0  0  0  0  0  0  0  0  0  0  0  0
    1.7508   -1.0870    3.7615 H   0  0  0  0  0  0  0  0  0  0  0  0
   -0.0743   -0.0400    2.4852 H   0  0  0  0  0  0  0  0  0  0  0  0
   -0.8765    0.4683    0.4621 H   0  0  0  0  0  0  0  0  0  0  0  0
  1  6  2  0
  1  2  1  0
  2  3  2  0
  3  4  1  0
  4  5  2  0
  5  6  1  0
  6  7  1  0
  3  8  1  0
  1  9  1  0
  2 10  1  0
  4 11  1  0
  5 12  1  0
  7 13  1  0
M  END
>  <_TriposChargeType>  (49) 
USER_CHARGES

>  <solvdG>  (49) 
-5.85

>  <fdG>  (49) 
-5.83

>  <fname>  (49) 
mobley_1733799

>  <cname>  (49) 
 4-bromophenol

>  <dataset>  (49) 
FreeSolv

$$$$
hexanoic acid
     RDKit          3D

 20 19  0  0  0  0  0  0  0  0999 V2000
    1.9045    1.9357   -0.3937 C   0  0  0  0  0  0  0  0  0  0  0  0
    1.7351    0.6234   -1.1427 C   0  0  0  0  0  0  0  0  0  0  0  0
    1.0009    0.7710   -2.4773 C   0  0  0  0  0  0  0  0  0  0  0  0
    0.8037   -0.5226   -3.2726 C   0  0  0  0  0  0  0  0  0  0  0  0
    0.0658   -0.3165   -4.5950 C   0  0  0  0  0  0  0  0  0  0  0  0
   -0.1094   -1.6145   -5.3503 C   0  0  0  0  0  0  0  0  0  0  0  0
    0.2799   -2.7120   -4.9766 O   0  0  0  0  0  0  0  0  0  0  0  0
   -0.7603   -1.4194   -6.5272 O   0  0  0  0  0  0  0  0  0  0  0  0
    2.4346    1.7646    0.5487 H   0  0  0  0  0  0  0  0  0  0  0  0
    2.4845    2.6527   -0.9831 H   0  0  0  0  0  0  0  0  0  0  0  0
    0.9379    2.3867   -0.1515 H   0  0  0  0  0  0  0  0  0  0  0  0
    2.7294    0.2056   -1.3419 H   0  0  0  0  0  0  0  0  0  0  0  0
    1.2201   -0.1003   -0.5016 H   0  0  0  0  0  0  0  0  0  0  0  0
    0.0155    1.2166   -2.2922 H   0  0  0  0  0  0  0  0  0  0  0  0
    1.5509    1.4892   -3.0982 H   0  0  0  0  0  0  0  0  0  0  0  0
    1.7711   -1.0053   -3.4558 H   0  0  0  0  0  0  0  0  0  0  0  0
    0.2342   -1.2223   -2.6472 H   0  0  0  0  0  0  0  0  0  0  0  0
    0.6259    0.3696   -5.2385 H   0  0  0  0  0  0  0  0  0  0  0  0
   -0.9278    0.1014   -4.3991 H   0  0  0  0  0  0  0  0  0  0  0  0
   -1.0188   -0.4902   -6.7079 H   0  0  0  0  0  0  0  0  0  0  0  0
  1  2  1  0
  2  3  1  0
  3  4  1  0
  4  5  1  0
  5  6  1  0
  6  7  2  0
  6  8  1  0
  1  9  1  0
  1 10  1  0
  1 11  1  0
  2 12  1  0
  2 13  1  0
  3 14  1  0
  3 15  1  0
  4 16  1  0
  4 17  1  0
  5 18  1  0
  5 19  1  0
  8 20  1  0
M  END
>  <_TriposChargeType>  (50) 
USER_CHARGES

>  <solvdG>  (50) 
-6.21

>  <fdG>  (50) 
-7.88

>  <fname>  (50) 
mobley_1735893

>  <cname>  (50) 
 hexanoic acid

>  <dataset>  (50) 
FreeSolv

$$$$
diethyl butanedioate
     RDKit          3D

 26 25  0  0  0  0  0  0  0  0999 V2000
   -1.2683    0.7034   -1.6643 C   0  0  0  0  0  0  0  0  0  0  0  0
   -1.0422   -0.2243   -0.4896 C   0  0  0  0  0  0  0  0  0  0  0  0
   -2.0597    0.0072    0.4899 O   0  0  0  0  0  0  0  0  0  0  0  0
   -1.9808   -0.7660    1.6139 C   0  0  0  0  0  0  0  0  0  0  0  0
   -1.1312   -1.6165    1.8403 O   0  0  0  0  0  0  0  0  0  0  0  0
   -3.1260   -0.4056    2.5360 C   0  0  0  0  0  0  0  0  0  0  0  0
   -3.1241   -1.2208    3.8272 C   0  0  0  0  0  0  0  0  0  0  0  0
   -4.2693   -0.8604    4.7492 C   0  0  0  0  0  0  0  0  0  0  0  0
   -5.1226   -0.0145    4.5199 O   0  0  0  0  0  0  0  0  0  0  0  0
   -4.1960   -1.6403    5.8689 O   0  0  0  0  0  0  0  0  0  0  0  0
   -5.2246   -1.4224    6.8399 C   0  0  0  0  0  0  0  0  0  0  0  0
   -4.9950   -2.3579    8.0029 C   0  0  0  0  0  0  0  0  0  0  0  0
   -0.5058    0.5521   -2.4334 H   0  0  0  0  0  0  0  0  0  0  0  0
   -2.2553    0.5328   -2.1065 H   0  0  0  0  0  0  0  0  0  0  0  0
   -1.2409    1.7493   -1.3407 H   0  0  0  0  0  0  0  0  0  0  0  0
   -0.0653   -0.0360   -0.0343 H   0  0  0  0  0  0  0  0  0  0  0  0
   -1.0927   -1.2692   -0.8102 H   0  0  0  0  0  0  0  0  0  0  0  0
   -4.0682   -0.5319    1.9917 H   0  0  0  0  0  0  0  0  0  0  0  0
   -3.0082    0.6529    2.7965 H   0  0  0  0  0  0  0  0  0  0  0  0
   -2.1953   -1.0063    4.3688 H   0  0  0  0  0  0  0  0  0  0  0  0
   -3.1685   -2.2946    3.6152 H   0  0  0  0  0  0  0  0  0  0  0  0
   -5.1761   -0.3812    7.1601 H   0  0  0  0  0  0  0  0  0  0  0  0
   -6.1874   -1.6160    6.3660 H   0  0  0  0  0  0  0  0  0  0  0  0
   -5.7660   -2.2170    8.7655 H   0  0  0  0  0  0  0  0  0  0  0  0
   -5.0111   -3.4017    7.6725 H   0  0  0  0  0  0  0  0  0  0  0  0
   -4.0137   -2.1826    8.4561 H   0  0  0  0  0  0  0  0  0  0  0  0
  1  2  1  0
  2  3  1  0
  3  4  1  0
  4  5  2  0
  4  6  1  0
  6  7  1  0
  7  8  1  0
  8  9  2  0
  8 10  1  0
 10 11  1  0
 11 12  1  0
  1 13  1  0
  1 14  1  0
  1 15  1  0
  2 16  1  0
  2 17  1  0
  6 18  1  0
  6 19  1  0
  7 20  1  0
  7 21  1  0
 11 22  1  0
 11 23  1  0
 12 24  1  0
 12 25  1  0
 12 26  1  0
M  END
>  <_TriposChargeType>  (51) 
USER_CHARGES

>  <solvdG>  (51) 
-5.71

>  <fdG>  (51) 
-8.68

>  <fname>  (51) 
mobley_1743409

>  <cname>  (51) 
 diethyl butanedioate

>  <dataset>  (51) 
FreeSolv

$$$$
2,6-dimethylphenol
     RDKit          3D

 19 19  0  0  0  0  0  0  0  0999 V2000
    1.9503   -1.0222   -1.6041 C   0  0  0  0  0  0  0  0  0  0  0  0
    1.8851   -1.0363   -0.1124 C   0  0  0  0  0  0  0  0  0  0  0  0
    2.9210   -1.6309    0.6081 C   0  0  0  0  0  0  0  0  0  0  0  0
    2.8783   -1.6520    2.0022 C   0  0  0  0  0  0  0  0  0  0  0  0
    1.7997   -1.0786    2.6757 C   0  0  0  0  0  0  0  0  0  0  0  0
    0.7638   -0.4841    1.9551 C   0  0  0  0  0  0  0  0  0  0  0  0
    0.8066   -0.4630    0.5610 C   0  0  0  0  0  0  0  0  0  0  0  0
   -0.2062    0.1190   -0.1432 O   0  0  0  0  0  0  0  0  0  0  0  0
   -0.3825    0.1239    2.6944 C   0  0  0  0  0  0  0  0  0  0  0  0
    2.4637   -0.1191   -1.9480 H   0  0  0  0  0  0  0  0  0  0  0  0
    2.4870   -1.8995   -1.9803 H   0  0  0  0  0  0  0  0  0  0  0  0
    0.9457   -1.0460   -2.0395 H   0  0  0  0  0  0  0  0  0  0  0  0
    3.7664   -2.0783    0.0925 H   0  0  0  0  0  0  0  0  0  0  0  0
    3.6850   -2.1146    2.5633 H   0  0  0  0  0  0  0  0  0  0  0  0
    1.7751   -1.1006    3.7619 H   0  0  0  0  0  0  0  0  0  0  0  0
   -0.8760    0.4696    0.4638 H   0  0  0  0  0  0  0  0  0  0  0  0
   -0.1778    1.1787    2.9116 H   0  0  0  0  0  0  0  0  0  0  0  0
   -1.3091    0.0606    2.1105 H   0  0  0  0  0  0  0  0  0  0  0  0
   -0.5655   -0.3990    3.6413 H   0  0  0  0  0  0  0  0  0  0  0  0
  1  2  1  0
  2  7  2  0
  2  3  1  0
  3  4  2  0
  4  5  1  0
  5  6  2  0
  6  7  1  0
  7  8  1  0
  6  9  1  0
  1 10  1  0
  1 11  1  0
  1 12  1  0
  3 13  1  0
  4 14  1  0
  5 15  1  0
  8 16  1  0
  9 17  1  0
  9 18  1  0
  9 19  1  0
M  END
>  <_TriposChargeType>  (52) 
USER_CHARGES

>  <solvdG>  (52) 
-5.26

>  <fdG>  (52) 
-4.31

>  <fname>  (52) 
mobley_1755375

>  <cname>  (52) 
 2,6-dimethylphenol

>  <dataset>  (52) 
FreeSolv

$$$$
1-chloro-2-methyl-benzene
     RDKit          3D

 15 15  0  0  0  0  0  0  0  0999 V2000
    1.9686   -1.0344   -1.6047 C   0  0  0  0  0  0  0  0  0  0  0  0
    1.8851   -1.0363   -0.1124 C   0  0  0  0  0  0  0  0  0  0  0  0
    2.9210   -1.6309    0.6081 C   0  0  0  0  0  0  0  0  0  0  0  0
    2.8783   -1.6520    2.0022 C   0  0  0  0  0  0  0  0  0  0  0  0
    1.7997   -1.0786    2.6757 C   0  0  0  0  0  0  0  0  0  0  0  0
    0.7638   -0.4841    1.9551 C   0  0  0  0  0  0  0  0  0  0  0  0
    0.8066   -0.4630    0.5610 C   0  0  0  0  0  0  0  0  0  0  0  0
   -0.4929    0.2817   -0.2968 Cl  0  0  0  0  0  0  0  0  0  0  0  0
    2.4860   -0.1339   -1.9496 H   0  0  0  0  0  0  0  0  0  0  0  0
    2.5100   -1.9145   -1.9671 H   0  0  0  0  0  0  0  0  0  0  0  0
    0.9694   -1.0620   -2.0521 H   0  0  0  0  0  0  0  0  0  0  0  0
    3.7670   -2.0787    0.0934 H   0  0  0  0  0  0  0  0  0  0  0  0
    3.6862   -2.1128    2.5630 H   0  0  0  0  0  0  0  0  0  0  0  0
    1.7692   -1.0923    3.7613 H   0  0  0  0  0  0  0  0  0  0  0  0
   -0.0684   -0.0399    2.4953 H   0  0  0  0  0  0  0  0  0  0  0  0
  1  2  1  0
  2  7  2  0
  2  3  1  0
  3  4  2  0
  4  5  1  0
  5  6  2  0
  6  7  1  0
  7  8  1  0
  1  9  1  0
  1 10  1  0
  1 11  1  0
  3 12  1  0
  4 13  1  0
  5 14  1  0
  6 15  1  0
M  END
>  <_TriposChargeType>  (53) 
USER_CHARGES

>  <solvdG>  (53) 
-1.14

>  <fdG>  (53) 
-0.47

>  <fname>  (53) 
mobley_1760914

>  <cname>  (53) 
 1-chloro-2-methyl-benzene

>  <dataset>  (53) 
FreeSolv

$$$$
3-(dimethoxyphosphinothioylsulfanylmethyl)-1,2,3-benzotriazin-4-one
     RDKit          3D

 31 32  0  0  0  0  0  0  0  0999 V2000
    0.8986    0.3180    0.1368 C   0  0  0  0  0  0  0  0  0  0  0  0
    1.1462   -1.0764    0.0649 O   0  0  0  0  0  0  0  0  0  0  0  0
    2.0715   -1.6911   -1.1352 P   0  0  0  0  0  5  0  0  0  0  0  0
    1.3288   -1.3170   -2.9124 S   0  0  0  0  0  0  0  0  0  0  0  0
    1.9403   -3.2711   -0.7343 O   0  0  0  0  0  0  0  0  0  0  0  0
    2.5953   -4.2636   -1.5068 C   0  0  0  0  0  0  0  0  0  0  0  0
    4.0770   -1.1109   -0.7259 S   0  0  0  0  0  0  0  0  0  0  0  0
    4.4611   -1.8275    0.8832 C   0  0  0  0  0  0  0  0  0  0  0  0
    5.8004   -1.5040    1.2749 N   0  0  0  0  0  0  0  0  0  0  0  0
    6.8364   -2.3674    0.9101 C   0  0  0  0  0  0  0  0  0  0  0  0
    6.6918   -3.4025    0.2668 O   0  0  0  0  0  0  0  0  0  0  0  0
    8.1742   -1.9695    1.3481 C   0  0  0  0  0  0  0  0  0  0  0  0
    9.3032   -2.7399    1.0529 C   0  0  0  0  0  0  0  0  0  0  0  0
   10.5553   -2.3160    1.4931 C   0  0  0  0  0  0  0  0  0  0  0  0
   10.6720   -1.1337    2.2207 C   0  0  0  0  0  0  0  0  0  0  0  0
    9.5351   -0.3749    2.5078 C   0  0  0  0  0  0  0  0  0  0  0  0
    8.2708   -0.7886    2.0715 C   0  0  0  0  0  0  0  0  0  0  0  0
    7.1576    0.0005    2.3785 N   0  0  0  0  0  0  0  0  0  0  0  0
    6.0213   -0.3534    1.9976 N   0  0  0  0  0  0  0  0  0  0  0  0
    0.2647    0.5321    1.0008 H   0  0  0  0  0  0  0  0  0  0  0  0
    0.4061    0.6493   -0.7809 H   0  0  0  0  0  0  0  0  0  0  0  0
    1.8504    0.8428    0.2470 H   0  0  0  0  0  0  0  0  0  0  0  0
    2.3884   -5.2485   -1.0831 H   0  0  0  0  0  0  0  0  0  0  0  0
    3.6706   -4.0721   -1.5074 H   0  0  0  0  0  0  0  0  0  0  0  0
    2.2174   -4.2211   -2.5303 H   0  0  0  0  0  0  0  0  0  0  0  0
    4.3711   -2.9159    0.8449 H   0  0  0  0  0  0  0  0  0  0  0  0
    3.7804   -1.4365    1.6435 H   0  0  0  0  0  0  0  0  0  0  0  0
    9.2258   -3.6635    0.4866 H   0  0  0  0  0  0  0  0  0  0  0  0
   11.4391   -2.9063    1.2696 H   0  0  0  0  0  0  0  0  0  0  0  0
   11.6470   -0.8014    2.5650 H   0  0  0  0  0  0  0  0  0  0  0  0
    9.6430    0.5458    3.0766 H   0  0  0  0  0  0  0  0  0  0  0  0
  1  2  1  0
  2  3  1  0
  3  4  2  0
  3  5  1  0
  5  6  1  0
  3  7  1  0
  7  8  1  0
  8  9  1  0
  9 19  1  0
  9 10  1  0
 10 11  2  0
 10 12  1  0
 12 17  2  0
 12 13  1  0
 13 14  2  0
 14 15  1  0
 15 16  2  0
 16 17  1  0
 17 18  1  0
 18 19  2  0
  1 20  1  0
  1 21  1  0
  1 22  1  0
  6 23  1  0
  6 24  1  0
  6 25  1  0
  8 26  1  0
  8 27  1  0
 13 28  1  0
 14 29  1  0
 15 30  1  0
 16 31  1  0
M  END
>  <_TriposChargeType>  (54) 
USER_CHARGES

>  <solvdG>  (54) 
-10.03

>  <fdG>  (54) 
-14.11

>  <fname>  (54) 
mobley_1770205

>  <cname>  (54) 
 3-(dimethoxyphosphinothioylsulfanylmethyl)-1,2,3-benzotriazin-4-one

>  <dataset>  (54) 
FreeSolv

$$$$
methyl 2,2-dimethylpropanoate
     RDKit          3D

 20 19  0  0  0  0  0  0  0  0999 V2000
    0.7043   -0.4120    0.7314 C   0  0  0  0  0  0  0  0  0  0  0  0
    1.9238   -1.0345    0.0387 C   0  0  0  0  0  0  0  0  0  0  0  0
    2.5939    0.0304   -0.8446 C   0  0  0  0  0  0  0  0  0  0  0  0
    1.4943   -2.2146   -0.8431 C   0  0  0  0  0  0  0  0  0  0  0  0
    2.9196   -1.5216    1.0965 C   0  0  0  0  0  0  0  0  0  0  0  0
    4.0726   -1.1204    1.1996 O   0  0  0  0  0  0  0  0  0  0  0  0
    2.3401   -2.4606    1.9028 O   0  0  0  0  0  0  0  0  0  0  0  0
    3.1760   -2.9928    2.9354 C   0  0  0  0  0  0  0  0  0  0  0  0
    0.1992   -1.1440    1.3720 H   0  0  0  0  0  0  0  0  0  0  0  0
    0.9948    0.4406    1.3555 H   0  0  0  0  0  0  0  0  0  0  0  0
   -0.0335   -0.0531    0.0050 H   0  0  0  0  0  0  0  0  0  0  0  0
    3.4727   -0.3756   -1.3590 H   0  0  0  0  0  0  0  0  0  0  0  0
    2.9220    0.8910   -0.2509 H   0  0  0  0  0  0  0  0  0  0  0  0
    1.9058    0.3982   -1.6145 H   0  0  0  0  0  0  0  0  0  0  0  0
    2.3512   -2.6748   -1.3481 H   0  0  0  0  0  0  0  0  0  0  0  0
    1.0028   -2.9943   -0.2506 H   0  0  0  0  0  0  0  0  0  0  0  0
    0.7950   -1.8897   -1.6221 H   0  0  0  0  0  0  0  0  0  0  0  0
    2.6062   -3.7239    3.5045 H   0  0  0  0  0  0  0  0  0  0  0  0
    3.5053   -2.1764    3.5745 H   0  0  0  0  0  0  0  0  0  0  0  0
    4.0336   -3.4701    2.4666 H   0  0  0  0  0  0  0  0  0  0  0  0
  1  2  1  0
  2  3  1  0
  2  4  1  0
  2  5  1  0
  5  6  2  0
  5  7  1  0
  7  8  1  0
  1  9  1  0
  1 10  1  0
  1 11  1  0
  3 12  1  0
  3 13  1  0
  3 14  1  0
  4 15  1  0
  4 16  1  0
  4 17  1  0
  8 18  1  0
  8 19  1  0
  8 20  1  0
M  END
>  <_TriposChargeType>  (55) 
USER_CHARGES

>  <solvdG>  (55) 
-2.4

>  <fdG>  (55) 
-3.3

>  <fname>  (55) 
mobley_1781152

>  <cname>  (55) 
 methyl 2,2-dimethylpropanoate

>  <dataset>  (55) 
FreeSolv

$$$$
1,2-dibromoethane
     RDKit          3D

  8  7  0  0  0  0  0  0  0  0999 V2000
    0.2477   -0.5489   -0.4546 C   0  0  0  0  0  0  0  0  0  0  0  0
   -0.2477    0.5488    0.4548 C   0  0  0  0  0  0  0  0  0  0  0  0
   -1.3633   -0.2201    1.8514 Br  0  0  0  0  0  0  0  0  0  0  0  0
    1.3635    0.2200   -1.8516 Br  0  0  0  0  0  0  0  0  0  0  0  0
   -0.5696   -1.0719   -0.9597 H   0  0  0  0  0  0  0  0  0  0  0  0
    0.8672   -1.2796    0.0735 H   0  0  0  0  0  0  0  0  0  0  0  0
    0.5697    1.0718    0.9599 H   0  0  0  0  0  0  0  0  0  0  0  0
   -0.8670    1.2797   -0.0733 H   0  0  0  0  0  0  0  0  0  0  0  0
  1  2  1  0
  2  3  1  0
  1  4  1  0
  1  5  1  0
  1  6  1  0
  2  7  1  0
  2  8  1  0
M  END
>  <_TriposChargeType>  (56) 
USER_CHARGES

>  <solvdG>  (56) 
-2.33

>  <fdG>  (56) 
-1.27

>  <fname>  (56) 
mobley_1792062

>  <cname>  (56) 
 1,2-dibromoethane

>  <dataset>  (56) 
FreeSolv

$$$$
ethanethiol
     RDKit          3D

  9  8  0  0  0  0  0  0  0  0999 V2000
    0.4412   -0.3496    0.9395 C   0  0  0  0  0  0  0  0  0  0  0  0
    1.8518   -0.8681    0.7340 C   0  0  0  0  0  0  0  0  0  0  0  0
    2.9258    0.4446    0.0921 S   0  0  0  0  0  0  0  0  0  0  0  0
   -0.2216   -1.1305    1.3274 H   0  0  0  0  0  0  0  0  0  0  0  0
    0.4213    0.4995    1.6311 H   0  0  0  0  0  0  0  0  0  0  0  0
    0.0269   -0.0085   -0.0151 H   0  0  0  0  0  0  0  0  0  0  0  0
    1.8501   -1.7008    0.0240 H   0  0  0  0  0  0  0  0  0  0  0  0
    2.2645   -1.2294    1.6807 H   0  0  0  0  0  0  0  0  0  0  0  0
    2.7673    1.2796    1.1282 H   0  0  0  0  0  0  0  0  0  0  0  0
  1  2  1  0
  2  3  1  0
  1  4  1  0
  1  5  1  0
  1  6  1  0
  2  7  1  0
  2  8  1  0
  3  9  1  0
M  END
>  <_TriposChargeType>  (57) 
USER_CHARGES

>  <solvdG>  (57) 
-1.14

>  <fdG>  (57) 
-0.4

>  <fname>  (57) 
mobley_1800170

>  <cname>  (57) 
 ethanethiol

>  <dataset>  (57) 
FreeSolv

$$$$
2-methylbutane
     RDKit          3D

 17 16  0  0  0  0  0  0  0  0999 V2000
   -0.2303   -0.8989   -0.6919 C   0  0  0  0  0  0  0  0  0  0  0  0
    0.4312   -0.6227   -2.0345 C   0  0  0  0  0  0  0  0  0  0  0  0
    1.9539   -0.4226   -1.9410 C   0  0  0  0  0  0  0  0  0  0  0  0
    2.6687   -1.6484   -1.3707 C   0  0  0  0  0  0  0  0  0  0  0  0
    2.5201   -0.0904   -3.3235 C   0  0  0  0  0  0  0  0  0  0  0  0
   -1.3089   -1.0315   -0.8259 H   0  0  0  0  0  0  0  0  0  0  0  0
   -0.0752   -0.0667    0.0020 H   0  0  0  0  0  0  0  0  0  0  0  0
    0.1589   -1.8119   -0.2323 H   0  0  0  0  0  0  0  0  0  0  0  0
    0.2003   -1.4445   -2.7233 H   0  0  0  0  0  0  0  0  0  0  0  0
   -0.0236    0.2810   -2.4589 H   0  0  0  0  0  0  0  0  0  0  0  0
    2.1567    0.4305   -1.2810 H   0  0  0  0  0  0  0  0  0  0  0  0
    3.7501   -1.4860   -1.3123 H   0  0  0  0  0  0  0  0  0  0  0  0
    2.4895   -2.5358   -1.9852 H   0  0  0  0  0  0  0  0  0  0  0  0
    2.3064   -1.8746   -0.3620 H   0  0  0  0  0  0  0  0  0  0  0  0
    3.6047    0.0572   -3.2841 H   0  0  0  0  0  0  0  0  0  0  0  0
    2.0676    0.8248   -3.7201 H   0  0  0  0  0  0  0  0  0  0  0  0
    2.3131   -0.8981   -4.0335 H   0  0  0  0  0  0  0  0  0  0  0  0
  1  2  1  0
  2  3  1  0
  3  4  1  0
  3  5  1  0
  1  6  1  0
  1  7  1  0
  1  8  1  0
  2  9  1  0
  2 10  1  0
  3 11  1  0
  4 12  1  0
  4 13  1  0
  4 14  1  0
  5 15  1  0
  5 16  1  0
  5 17  1  0
M  END
>  <_TriposChargeType>  (58) 
USER_CHARGES

>  <solvdG>  (58) 
2.38

>  <fdG>  (58) 
2.59

>  <fname>  (58) 
mobley_1803862

>  <cname>  (58) 
 isopentane

>  <dataset>  (58) 
FreeSolv

$$$$
3-methyl-1H-indole
     RDKit          3D

 19 20  0  0  0  0  0  0  0  0999 V2000
   -4.2341    1.7076    4.5379 C   0  0  0  0  0  0  0  0  0  0  0  0
   -3.8586    0.6897    3.5356 C   0  0  0  0  0  0  0  0  0  0  0  0
   -4.5471   -0.4724    3.2738 C   0  0  0  0  0  0  0  0  0  0  0  0
   -3.8818   -1.1421    2.2822 N   0  0  0  0  0  0  0  0  0  0  0  0
   -2.7685   -0.4315    1.8936 C   0  0  0  0  0  0  0  0  0  0  0  0
   -2.7304    0.7292    2.6692 C   0  0  0  0  0  0  0  0  0  0  0  0
   -1.6773    1.6439    2.4698 C   0  0  0  0  0  0  0  0  0  0  0  0
   -0.7036    1.3640    1.5041 C   0  0  0  0  0  0  0  0  0  0  0  0
   -0.7671    0.1975    0.7446 C   0  0  0  0  0  0  0  0  0  0  0  0
   -1.8022   -0.7245    0.9247 C   0  0  0  0  0  0  0  0  0  0  0  0
   -4.8904    2.4561    4.0836 H   0  0  0  0  0  0  0  0  0  0  0  0
   -4.7539    1.2486    5.3854 H   0  0  0  0  0  0  0  0  0  0  0  0
   -3.3463    2.2100    4.9362 H   0  0  0  0  0  0  0  0  0  0  0  0
   -5.4494   -0.8842    3.7045 H   0  0  0  0  0  0  0  0  0  0  0  0
   -4.1662   -2.0297    1.8914 H   0  0  0  0  0  0  0  0  0  0  0  0
   -1.6132    2.5572    3.0545 H   0  0  0  0  0  0  0  0  0  0  0  0
    0.1112    2.0654    1.3462 H   0  0  0  0  0  0  0  0  0  0  0  0
   -0.0003    0.0001   -0.0001 H   0  0  0  0  0  0  0  0  0  0  0  0
   -1.8514   -1.6318    0.3322 H   0  0  0  0  0  0  0  0  0  0  0  0
  1  2  1  0
  2  6  1  0
  2  3  2  0
  3  4  1  0
  4  5  1  0
  5 10  1  0
  5  6  2  0
  6  7  1  0
  7  8  2  0
  8  9  1  0
  9 10  2  0
  1 11  1  0
  1 12  1  0
  1 13  1  0
  3 14  1  0
  4 15  1  0
  7 16  1  0
  8 17  1  0
  9 18  1  0
 10 19  1  0
M  END
>  <_TriposChargeType>  (59) 
USER_CHARGES

>  <solvdG>  (59) 
-5.88

>  <fdG>  (59) 
-8.16

>  <fname>  (59) 
mobley_1821184

>  <cname>  (59) 
 3-methyl-1H-indole

>  <dataset>  (59) 
FreeSolv

$$$$
hexanal
     RDKit          3D

 19 18  0  0  0  0  0  0  0  0999 V2000
   -0.6593   -0.8243    2.6572 C   0  0  0  0  0  0  0  0  0  0  0  0
   -0.0529    0.2129    1.7256 C   0  0  0  0  0  0  0  0  0  0  0  0
   -0.3082   -0.1341    0.2585 C   0  0  0  0  0  0  0  0  0  0  0  0
    0.3053    0.9146   -0.6744 C   0  0  0  0  0  0  0  0  0  0  0  0
    0.0667    0.5951   -2.1477 C   0  0  0  0  0  0  0  0  0  0  0  0
    0.6582    1.6088   -3.0996 C   0  0  0  0  0  0  0  0  0  0  0  0
    1.2801    2.6100   -2.7618 O   0  0  0  0  0  0  0  0  0  0  0  0
   -0.4649   -0.5565    3.7005 H   0  0  0  0  0  0  0  0  0  0  0  0
   -0.2295   -1.8143    2.4748 H   0  0  0  0  0  0  0  0  0  0  0  0
   -1.7434   -0.8891    2.5196 H   0  0  0  0  0  0  0  0  0  0  0  0
    1.0257    0.2754    1.9108 H   0  0  0  0  0  0  0  0  0  0  0  0
   -0.4795    1.1959    1.9559 H   0  0  0  0  0  0  0  0  0  0  0  0
   -1.3886   -0.1955    0.0797 H   0  0  0  0  0  0  0  0  0  0  0  0
    0.1099   -1.1237    0.0415 H   0  0  0  0  0  0  0  0  0  0  0  0
    1.3796    1.0083   -0.4750 H   0  0  0  0  0  0  0  0  0  0  0  0
   -0.1466    1.8894   -0.4539 H   0  0  0  0  0  0  0  0  0  0  0  0
    0.4739   -0.3890   -2.4028 H   0  0  0  0  0  0  0  0  0  0  0  0
   -1.0109    0.5729   -2.3452 H   0  0  0  0  0  0  0  0  0  0  0  0
    0.4746    1.4020   -4.1683 H   0  0  0  0  0  0  0  0  0  0  0  0
  1  2  1  0
  2  3  1  0
  3  4  1  0
  4  5  1  0
  5  6  1  0
  6  7  2  0
  1  8  1  0
  1  9  1  0
  1 10  1  0
  2 11  1  0
  2 12  1  0
  3 13  1  0
  3 14  1  0
  4 15  1  0
  4 16  1  0
  5 17  1  0
  5 18  1  0
  6 19  1  0
M  END
>  <_TriposChargeType>  (60) 
USER_CHARGES

>  <solvdG>  (60) 
-2.81

>  <fdG>  (60) 
-2.86

>  <fname>  (60) 
mobley_1827204

>  <cname>  (60) 
 hexanal

>  <dataset>  (60) 
FreeSolv

$$$$
1,1,2-trichloro-1,2,2-trifluoro-ethane
     RDKit          3D

  8  7  0  0  0  0  0  0  0  0999 V2000
    0.7264   -0.0219    0.2801 C   0  0  0  0  0  0  0  0  0  0  0  0
   -0.6579   -0.0548   -0.3579 C   0  0  0  0  0  0  0  0  0  0  0  0
   -0.5724   -0.8215   -1.4830 F   0  0  0  0  0  0  0  0  0  0  0  0
   -1.2017    1.5702   -0.8479 Cl  0  0  0  0  0  0  0  0  0  0  0  0
   -1.8667   -0.8018    0.7179 Cl  0  0  0  0  0  0  0  0  0  0  0  0
    1.1048   -1.2900    0.5933 F   0  0  0  0  0  0  0  0  0  0  0  0
    1.6296    0.4236   -0.6339 F   0  0  0  0  0  0  0  0  0  0  0  0
    0.8355    0.9881    1.7370 Cl  0  0  0  0  0  0  0  0  0  0  0  0
  1  2  1  0
  2  3  1  0
  2  4  1  0
  2  5  1  0
  1  6  1  0
  1  7  1  0
  1  8  1  0
M  END
>  <_TriposChargeType>  (61) 
USER_CHARGES

>  <solvdG>  (61) 
1.77

>  <fdG>  (61) 
1.69

>  <fname>  (61) 
mobley_1838110

>  <cname>  (61) 
 1,1,2-trichloro-1,2,2-trifluoro-ethane

>  <dataset>  (61) 
FreeSolv

$$$$
(4-chlorophenyl)sulfanylmethylsulfanyl-diethoxy-thioxo-$l^{5}-phosphane
     RDKit          3D

 34 34  0  0  0  0  0  0  0  0999 V2000
    2.1824   -0.5074   -0.4906 C   0  0  0  0  0  0  0  0  0  0  0  0
    0.7668   -0.6302    0.0316 C   0  0  0  0  0  0  0  0  0  0  0  0
    0.5066   -1.9883    0.3457 O   0  0  0  0  0  0  0  0  0  0  0  0
   -0.9515   -2.4349    0.9358 P   0  0  0  0  0  5  0  0  0  0  0  0
   -2.4089   -2.0114   -0.3077 S   0  0  0  0  0  0  0  0  0  0  0  0
   -0.6713   -4.0425    1.0396 O   0  0  0  0  0  0  0  0  0  0  0  0
   -1.6796   -4.9159    1.5201 C   0  0  0  0  0  0  0  0  0  0  0  0
   -1.1514   -6.3352    1.5091 C   0  0  0  0  0  0  0  0  0  0  0  0
   -1.0646   -1.6987    2.9278 S   0  0  0  0  0  0  0  0  0  0  0  0
    0.3132   -2.4840    3.8033 C   0  0  0  0  0  0  0  0  0  0  0  0
    0.3961   -1.9799    5.5494 S   0  0  0  0  0  0  0  0  0  0  0  0
    1.8218   -2.9074    6.1024 C   0  0  0  0  0  0  0  0  0  0  0  0
    2.2481   -2.8073    7.4268 C   0  0  0  0  0  0  0  0  0  0  0  0
    3.3600   -3.5306    7.8581 C   0  0  0  0  0  0  0  0  0  0  0  0
    4.0457   -4.3540    6.9651 C   0  0  0  0  0  0  0  0  0  0  0  0
    3.6194   -4.4541    5.6407 C   0  0  0  0  0  0  0  0  0  0  0  0
    2.5074   -3.7307    5.2094 C   0  0  0  0  0  0  0  0  0  0  0  0
    5.4173   -5.2467    7.4973 Cl  0  0  0  0  0  0  0  0  0  0  0  0
    2.4165    0.5306   -0.7431 H   0  0  0  0  0  0  0  0  0  0  0  0
    2.9013   -0.8603    0.2561 H   0  0  0  0  0  0  0  0  0  0  0  0
    2.3198   -1.1275   -1.3826 H   0  0  0  0  0  0  0  0  0  0  0  0
    0.0488   -0.2995   -0.7247 H   0  0  0  0  0  0  0  0  0  0  0  0
    0.6375   -0.0282    0.9360 H   0  0  0  0  0  0  0  0  0  0  0  0
   -1.9520   -4.6169    2.5373 H   0  0  0  0  0  0  0  0  0  0  0  0
   -2.5597   -4.8299    0.8749 H   0  0  0  0  0  0  0  0  0  0  0  0
   -1.9064   -7.0366    1.8750 H   0  0  0  0  0  0  0  0  0  0  0  0
   -0.8571   -6.6291    0.4963 H   0  0  0  0  0  0  0  0  0  0  0  0
   -0.2580   -6.4186    2.1369 H   0  0  0  0  0  0  0  0  0  0  0  0
    1.2539   -2.2709    3.2897 H   0  0  0  0  0  0  0  0  0  0  0  0
    0.1617   -3.5666    3.7736 H   0  0  0  0  0  0  0  0  0  0  0  0
    1.7267   -2.1705    8.1373 H   0  0  0  0  0  0  0  0  0  0  0  0
    3.6811   -3.4427    8.8929 H   0  0  0  0  0  0  0  0  0  0  0  0
    4.1438   -5.0922    4.9340 H   0  0  0  0  0  0  0  0  0  0  0  0
    2.1900   -3.8218    4.1735 H   0  0  0  0  0  0  0  0  0  0  0  0
  1  2  1  0
  2  3  1  0
  3  4  1  0
  4  5  2  0
  4  6  1  0
  6  7  1  0
  7  8  1  0
  4  9  1  0
  9 10  1  0
 10 11  1  0
 11 12  1  0
 12 17  2  0
 12 13  1  0
 13 14  2  0
 14 15  1  0
 15 16  2  0
 16 17  1  0
 15 18  1  0
  1 19  1  0
  1 20  1  0
  1 21  1  0
  2 22  1  0
  2 23  1  0
  7 24  1  0
  7 25  1  0
  8 26  1  0
  8 27  1  0
  8 28  1  0
 10 29  1  0
 10 30  1  0
 13 31  1  0
 14 32  1  0
 16 33  1  0
 17 34  1  0
M  END
>  <_TriposChargeType>  (62) 
USER_CHARGES

>  <solvdG>  (62) 
-6.5

>  <fdG>  (62) 
-7.02

>  <fname>  (62) 
mobley_1849020

>  <cname>  (62) 
 4-chlorophenyl)sulfanylmethylsulfanyl-diethoxy-thioxo-$l^{5}-phosphane

>  <dataset>  (62) 
FreeSolv

$$$$
1,2,3,5-tetrachlorobenzene
     RDKit          3D

 12 12  0  0  0  0  0  0  0  0999 V2000
    1.8851   -1.0363   -0.1124 C   0  0  0  0  0  0  0  0  0  0  0  0
    2.9210   -1.6309    0.6081 C   0  0  0  0  0  0  0  0  0  0  0  0
    2.8783   -1.6520    2.0022 C   0  0  0  0  0  0  0  0  0  0  0  0
    1.7997   -1.0786    2.6757 C   0  0  0  0  0  0  0  0  0  0  0  0
    0.7638   -0.4841    1.9551 C   0  0  0  0  0  0  0  0  0  0  0  0
    0.8066   -0.4630    0.5610 C   0  0  0  0  0  0  0  0  0  0  0  0
   -0.4406    0.2555   -0.4001 Cl  0  0  0  0  0  0  0  0  0  0  0  0
   -0.5805    0.2294    2.7943 Cl  0  0  0  0  0  0  0  0  0  0  0  0
    1.8165   -1.1434    4.4050 Cl  0  0  0  0  0  0  0  0  0  0  0  0
    4.2518   -2.3389   -0.2230 Cl  0  0  0  0  0  0  0  0  0  0  0  0
    1.9220   -1.0207   -1.1999 H   0  0  0  0  0  0  0  0  0  0  0  0
    3.6878   -2.1170    2.5610 H   0  0  0  0  0  0  0  0  0  0  0  0
  1  6  2  0
  1  2  1  0
  2  3  2  0
  3  4  1  0
  4  5  2  0
  5  6  1  0
  6  7  1  0
  5  8  1  0
  4  9  1  0
  2 10  1  0
  1 11  1  0
  3 12  1  0
M  END
>  <_TriposChargeType>  (63) 
USER_CHARGES

>  <solvdG>  (63) 
-1.62

>  <fdG>  (63) 
0.14

>  <fname>  (63) 
mobley_1855337

>  <cname>  (63) 
 1,2,3,5-tetrachlorobenzene

>  <dataset>  (63) 
FreeSolv

$$$$
1,2-dichloroethane
     RDKit          3D

  8  7  0  0  0  0  0  0  0  0999 V2000
   -0.5454   -0.5059   -0.1994 C   0  0  0  0  0  0  0  0  0  0  0  0
    0.4803    0.4213    0.4301 C   0  0  0  0  0  0  0  0  0  0  0  0
    1.8144    0.7906   -0.6891 Cl  0  0  0  0  0  0  0  0  0  0  0  0
   -1.2731    0.2056   -1.6599 Cl  0  0  0  0  0  0  0  0  0  0  0  0
   -1.3608   -0.6954    0.5049 H   0  0  0  0  0  0  0  0  0  0  0  0
   -0.1029   -1.4680   -0.4755 H   0  0  0  0  0  0  0  0  0  0  0  0
    0.0290    1.3678    0.7436 H   0  0  0  0  0  0  0  0  0  0  0  0
    0.9231   -0.0534    1.3108 H   0  0  0  0  0  0  0  0  0  0  0  0
  1  2  1  0
  2  3  1  0
  1  4  1  0
  1  5  1  0
  1  6  1  0
  2  7  1  0
  2  8  1  0
M  END
>  <_TriposChargeType>  (64) 
USER_CHARGES

>  <solvdG>  (64) 
-1.79

>  <fdG>  (64) 
-0.36

>  <fname>  (64) 
mobley_1857976

>  <cname>  (64) 
 1,2-dichloroethane

>  <dataset>  (64) 
FreeSolv

$$$$
2-phenylethanol
     RDKit          3D

 19 19  0  0  0  0  0  0  0  0999 V2000
    1.8851   -1.0363   -0.1124 C   0  0  0  0  0  0  0  0  0  0  0  0
    2.9210   -1.6309    0.6081 C   0  0  0  0  0  0  0  0  0  0  0  0
    2.8783   -1.6520    2.0022 C   0  0  0  0  0  0  0  0  0  0  0  0
    1.7997   -1.0786    2.6757 C   0  0  0  0  0  0  0  0  0  0  0  0
    0.7638   -0.4841    1.9551 C   0  0  0  0  0  0  0  0  0  0  0  0
    0.8066   -0.4630    0.5610 C   0  0  0  0  0  0  0  0  0  0  0  0
    1.7548   -1.1014    4.1663 C   0  0  0  0  0  0  0  0  0  0  0  0
    1.0574   -2.3416    4.7290 C   0  0  0  0  0  0  0  0  0  0  0  0
    1.7460   -3.5109    4.3041 O   0  0  0  0  0  0  0  0  0  0  0  0
    1.9176   -1.0210   -1.1980 H   0  0  0  0  0  0  0  0  0  0  0  0
    3.7604   -2.0783    0.0841 H   0  0  0  0  0  0  0  0  0  0  0  0
    3.6899   -2.1173    2.5553 H   0  0  0  0  0  0  0  0  0  0  0  0
   -0.0804   -0.0348    2.4713 H   0  0  0  0  0  0  0  0  0  0  0  0
   -0.0006   -0.0010    0.0001 H   0  0  0  0  0  0  0  0  0  0  0  0
    2.7753   -1.0445    4.5761 H   0  0  0  0  0  0  0  0  0  0  0  0
    1.2277   -0.2073    4.5332 H   0  0  0  0  0  0  0  0  0  0  0  0
    1.0766   -2.3205    5.8234 H   0  0  0  0  0  0  0  0  0  0  0  0
    0.0161   -2.4046    4.3963 H   0  0  0  0  0  0  0  0  0  0  0  0
    1.2709   -4.2680    4.6827 H   0  0  0  0  0  0  0  0  0  0  0  0
  1  6  2  0
  1  2  1  0
  2  3  2  0
  3  4  1  0
  4  5  2  0
  5  6  1  0
  4  7  1  0
  7  8  1  0
  8  9  1  0
  1 10  1  0
  2 11  1  0
  3 12  1  0
  5 13  1  0
  6 14  1  0
  7 15  1  0
  7 16  1  0
  8 17  1  0
  8 18  1  0
  9 19  1  0
M  END
>  <_TriposChargeType>  (65) 
USER_CHARGES

>  <solvdG>  (65) 
-6.79

>  <fdG>  (65) 
-5.28

>  <fname>  (65) 
mobley_1858644

>  <cname>  (65) 
 2-phenylethanol

>  <dataset>  (65) 
FreeSolv

$$$$
propane-1-thiol
     RDKit          3D

 12 11  0  0  0  0  0  0  0  0999 V2000
    0.1575   -0.4974    0.9622 C   0  0  0  0  0  0  0  0  0  0  0  0
    1.6397   -0.5220    1.3061 C   0  0  0  0  0  0  0  0  0  0  0  0
    1.8811   -1.2098    2.6451 C   0  0  0  0  0  0  0  0  0  0  0  0
    3.6529   -1.2302    3.0395 S   0  0  0  0  0  0  0  0  0  0  0  0
   -0.0139   -0.0032    0.0005 H   0  0  0  0  0  0  0  0  0  0  0  0
   -0.2326   -1.5178    0.8940 H   0  0  0  0  0  0  0  0  0  0  0  0
   -0.4144    0.0345    1.7293 H   0  0  0  0  0  0  0  0  0  0  0  0
    2.0115    0.5095    1.3338 H   0  0  0  0  0  0  0  0  0  0  0  0
    2.1779   -1.0441    0.5058 H   0  0  0  0  0  0  0  0  0  0  0  0
    1.3531   -0.6868    3.4490 H   0  0  0  0  0  0  0  0  0  0  0  0
    1.5199   -2.2429    2.6195 H   0  0  0  0  0  0  0  0  0  0  0  0
    4.0307   -1.9274    1.9595 H   0  0  0  0  0  0  0  0  0  0  0  0
  1  2  1  0
  2  3  1  0
  3  4  1  0
  1  5  1  0
  1  6  1  0
  1  7  1  0
  2  8  1  0
  2  9  1  0
  3 10  1  0
  3 11  1  0
  4 12  1  0
M  END
>  <_TriposChargeType>  (66) 
USER_CHARGES

>  <solvdG>  (66) 
-1.1

>  <fdG>  (66) 
-0.18

>  <fname>  (66) 
mobley_186894

>  <cname>  (66) 
 propanethiol

>  <dataset>  (66) 
FreeSolv

$$$$
toluene
     RDKit          3D

 15 15  0  0  0  0  0  0  0  0999 V2000
    1.9309   -1.0140   -1.6029 C   0  0  0  0  0  0  0  0  0  0  0  0
    1.8851   -1.0363   -0.1124 C   0  0  0  0  0  0  0  0  0  0  0  0
    2.9210   -1.6309    0.6081 C   0  0  0  0  0  0  0  0  0  0  0  0
    2.8783   -1.6520    2.0022 C   0  0  0  0  0  0  0  0  0  0  0  0
    1.7997   -1.0786    2.6757 C   0  0  0  0  0  0  0  0  0  0  0  0
    0.7638   -0.4841    1.9551 C   0  0  0  0  0  0  0  0  0  0  0  0
    0.8066   -0.4630    0.5610 C   0  0  0  0  0  0  0  0  0  0  0  0
    2.4387   -0.1083   -1.9484 H   0  0  0  0  0  0  0  0  0  0  0  0
    2.4637   -1.8885   -1.9908 H   0  0  0  0  0  0  0  0  0  0  0  0
    0.9208   -1.0367   -2.0254 H   0  0  0  0  0  0  0  0  0  0  0  0
    3.7649   -2.0803    0.0915 H   0  0  0  0  0  0  0  0  0  0  0  0
    3.6850   -2.1148    2.5632 H   0  0  0  0  0  0  0  0  0  0  0  0
    1.7662   -1.0949    3.7611 H   0  0  0  0  0  0  0  0  0  0  0  0
   -0.0762   -0.0382    2.4794 H   0  0  0  0  0  0  0  0  0  0  0  0
   -0.0050    0.0028    0.0083 H   0  0  0  0  0  0  0  0  0  0  0  0
  1  2  1  0
  2  7  2  0
  2  3  1  0
  3  4  2  0
  4  5  1  0
  5  6  2  0
  6  7  1  0
  1  8  1  0
  1  9  1  0
  1 10  1  0
  3 11  1  0
  4 12  1  0
  5 13  1  0
  6 14  1  0
  7 15  1  0
M  END
>  <_TriposChargeType>  (67) 
USER_CHARGES

>  <solvdG>  (67) 
-0.9

>  <fdG>  (67) 
-0.79

>  <fname>  (67) 
mobley_1873346

>  <cname>  (67) 
 toluene

>  <dataset>  (67) 
FreeSolv

$$$$
pentan-3-one
     RDKit          3D

 16 15  0  0  0  0  0  0  0  0999 V2000
    0.1179    0.0606   -1.0835 C   0  0  0  0  0  0  0  0  0  0  0  0
   -0.9876    0.8895   -1.7119 C   0  0  0  0  0  0  0  0  0  0  0  0
   -2.3713    0.3190   -1.4483 C   0  0  0  0  0  0  0  0  0  0  0  0
   -2.5441   -0.7069   -0.7921 O   0  0  0  0  0  0  0  0  0  0  0  0
   -3.5272    1.1011   -2.0503 C   0  0  0  0  0  0  0  0  0  0  0  0
   -4.8776    0.4769   -1.7491 C   0  0  0  0  0  0  0  0  0  0  0  0
    1.0953    0.5047   -1.2965 H   0  0  0  0  0  0  0  0  0  0  0  0
   -0.0026    0.0037    0.0034 H   0  0  0  0  0  0  0  0  0  0  0  0
    0.1139   -0.9620   -1.4753 H   0  0  0  0  0  0  0  0  0  0  0  0
   -0.9556    1.9072   -1.3090 H   0  0  0  0  0  0  0  0  0  0  0  0
   -0.8384    0.9362   -2.7956 H   0  0  0  0  0  0  0  0  0  0  0  0
   -3.3798    1.1473   -3.1342 H   0  0  0  0  0  0  0  0  0  0  0  0
   -3.4969    2.1190   -1.6478 H   0  0  0  0  0  0  0  0  0  0  0  0
   -5.6898    1.0610   -2.1946 H   0  0  0  0  0  0  0  0  0  0  0  0
   -5.0548    0.4259   -0.6696 H   0  0  0  0  0  0  0  0  0  0  0  0
   -4.9261   -0.5394   -2.1521 H   0  0  0  0  0  0  0  0  0  0  0  0
  1  2  1  0
  2  3  1  0
  3  4  2  0
  3  5  1  0
  5  6  1  0
  1  7  1  0
  1  8  1  0
  1  9  1  0
  2 10  1  0
  2 11  1  0
  5 12  1  0
  5 13  1  0
  6 14  1  0
  6 15  1  0
  6 16  1  0
M  END
>  <_TriposChargeType>  (68) 
USER_CHARGES

>  <solvdG>  (68) 
-3.41

>  <fdG>  (68) 
-3.05

>  <fname>  (68) 
mobley_1875719

>  <cname>  (68) 
 pentan-3-one

>  <dataset>  (68) 
FreeSolv

$$$$
pentan-2-one
     RDKit          3D

 16 15  0  0  0  0  0  0  0  0999 V2000
    1.8919   -0.6085   -4.8578 C   0  0  0  0  0  0  0  0  0  0  0  0
    1.0381    0.3830   -4.0845 C   0  0  0  0  0  0  0  0  0  0  0  0
    1.1477    0.1606   -2.5789 C   0  0  0  0  0  0  0  0  0  0  0  0
    0.3030    1.1397   -1.7827 C   0  0  0  0  0  0  0  0  0  0  0  0
   -0.3873    2.0098   -2.3114 O   0  0  0  0  0  0  0  0  0  0  0  0
    0.3516    0.9914   -0.2840 C   0  0  0  0  0  0  0  0  0  0  0  0
    1.8072   -0.4416   -5.9363 H   0  0  0  0  0  0  0  0  0  0  0  0
    1.5873   -1.6382   -4.6448 H   0  0  0  0  0  0  0  0  0  0  0  0
    2.9448   -0.5006   -4.5789 H   0  0  0  0  0  0  0  0  0  0  0  0
   -0.0069    0.2855   -4.4022 H   0  0  0  0  0  0  0  0  0  0  0  0
    1.3515    1.4034   -4.3356 H   0  0  0  0  0  0  0  0  0  0  0  0
    0.8163   -0.8527   -2.3260 H   0  0  0  0  0  0  0  0  0  0  0  0
    2.1892    0.2774   -2.2591 H   0  0  0  0  0  0  0  0  0  0  0  0
    1.1578    1.6090    0.1194 H   0  0  0  0  0  0  0  0  0  0  0  0
    0.5143   -0.0577   -0.0248 H   0  0  0  0  0  0  0  0  0  0  0  0
   -0.5966    1.3197    0.1508 H   0  0  0  0  0  0  0  0  0  0  0  0
  1  2  1  0
  2  3  1  0
  3  4  1  0
  4  5  2  0
  4  6  1  0
  1  7  1  0
  1  8  1  0
  1  9  1  0
  2 10  1  0
  2 11  1  0
  3 12  1  0
  3 13  1  0
  6 14  1  0
  6 15  1  0
  6 16  1  0
M  END
>  <_TriposChargeType>  (69) 
USER_CHARGES

>  <solvdG>  (69) 
-3.52

>  <fdG>  (69) 
-3.17

>  <fname>  (69) 
mobley_1881249

>  <cname>  (69) 
 pentan-2-one

>  <dataset>  (69) 
FreeSolv

$$$$
1,1,1,2-tetrachloroethane
     RDKit          3D

  8  7  0  0  0  0  0  0  0  0999 V2000
   -0.2264   -0.3196    0.7145 C   0  0  0  0  0  0  0  0  0  0  0  0
    0.1493    0.1837   -0.6821 C   0  0  0  0  0  0  0  0  0  0  0  0
    1.9206    0.3779   -0.8496 Cl  0  0  0  0  0  0  0  0  0  0  0  0
   -0.3946   -1.0246   -1.8938 Cl  0  0  0  0  0  0  0  0  0  0  0  0
   -0.6548    1.7393   -1.0509 Cl  0  0  0  0  0  0  0  0  0  0  0  0
    0.2860    0.7750    2.0295 Cl  0  0  0  0  0  0  0  0  0  0  0  0
    0.2327   -1.2929    0.9204 H   0  0  0  0  0  0  0  0  0  0  0  0
   -1.3112   -0.4397    0.8121 H   0  0  0  0  0  0  0  0  0  0  0  0
  1  2  1  0
  2  3  1  0
  2  4  1  0
  2  5  1  0
  1  6  1  0
  1  7  1  0
  1  8  1  0
M  END
>  <_TriposChargeType>  (70) 
USER_CHARGES

>  <solvdG>  (70) 
-1.43

>  <fdG>  (70) 
-0.09

>  <fname>  (70) 
mobley_1893815

>  <cname>  (70) 
 1,1,1,2-tetrachloroethane

>  <dataset>  (70) 
FreeSolv

$$$$
1-chlorohexane
     RDKit          3D

 20 19  0  0  0  0  0  0  0  0999 V2000
    0.6706   -0.6450    0.5765 C   0  0  0  0  0  0  0  0  0  0  0  0
    0.0265   -1.0251    1.9002 C   0  0  0  0  0  0  0  0  0  0  0  0
    0.9415   -1.9260    2.7295 C   0  0  0  0  0  0  0  0  0  0  0  0
    0.2900   -2.3065    4.0612 C   0  0  0  0  0  0  0  0  0  0  0  0
    1.2093   -3.2091    4.8896 C   0  0  0  0  0  0  0  0  0  0  0  0
    0.6054   -3.6178    6.2293 C   0  0  0  0  0  0  0  0  0  0  0  0
    1.6985   -4.6642    7.1637 Cl  0  0  0  0  0  0  0  0  0  0  0  0
    0.0089   -0.0002   -0.0108 H   0  0  0  0  0  0  0  0  0  0  0  0
    0.8819   -1.5422   -0.0138 H   0  0  0  0  0  0  0  0  0  0  0  0
    1.6144   -0.1142    0.7375 H   0  0  0  0  0  0  0  0  0  0  0  0
   -0.2068   -0.1128    2.4616 H   0  0  0  0  0  0  0  0  0  0  0  0
   -0.9226   -1.5374    1.7044 H   0  0  0  0  0  0  0  0  0  0  0  0
    1.8911   -1.4106    2.9194 H   0  0  0  0  0  0  0  0  0  0  0  0
    1.1747   -2.8346    2.1610 H   0  0  0  0  0  0  0  0  0  0  0  0
   -0.6573   -2.8254    3.8704 H   0  0  0  0  0  0  0  0  0  0  0  0
    0.0527   -1.3934    4.6186 H   0  0  0  0  0  0  0  0  0  0  0  0
    2.1734   -2.7111    5.0514 H   0  0  0  0  0  0  0  0  0  0  0  0
    1.4190   -4.1217    4.3178 H   0  0  0  0  0  0  0  0  0  0  0  0
    0.3720   -2.7416    6.8415 H   0  0  0  0  0  0  0  0  0  0  0  0
   -0.3201   -4.1789    6.0684 H   0  0  0  0  0  0  0  0  0  0  0  0
  1  2  1  0
  2  3  1  0
  3  4  1  0
  4  5  1  0
  5  6  1  0
  6  7  1  0
  1  8  1  0
  1  9  1  0
  1 10  1  0
  2 11  1  0
  2 12  1  0
  3 13  1  0
  3 14  1  0
  4 15  1  0
  4 16  1  0
  5 17  1  0
  5 18  1  0
  6 19  1  0
  6 20  1  0
M  END
>  <_TriposChargeType>  (71) 
USER_CHARGES

>  <solvdG>  (71) 
0.0

>  <fdG>  (71) 
1.26

>  <fname>  (71) 
mobley_1893937

>  <cname>  (71) 
 1-chlorohexane

>  <dataset>  (71) 
FreeSolv

$$$$
(2S,3R,4S,5R)-tetrahydropyran-2,3,4,5-tetrol
     RDKit          3D

 20 20  0  0  0  0  0  0  0  0999 V2000
    0.3518   -0.7182   -0.7492 C   0  0  0  0  0  0  0  0  0  0  0  0
    0.3582   -2.1205   -0.1525 C   0  0  2  0  0  0  0  0  0  0  0  0
    0.9178   -2.1172    0.7900 H   0  0  0  0  0  0  0  0  0  0  0  0
    0.9789   -3.1305   -1.1188 C   0  0  1  0  0  0  0  0  0  0  0  0
    0.2984   -3.3629   -1.9434 H   0  0  0  0  0  0  0  0  0  0  0  0
    2.3186   -2.6088   -1.6402 C   0  0  2  0  0  0  0  0  0  0  0  0
    3.0489   -2.6375   -0.8222 H   0  0  0  0  0  0  0  0  0  0  0  0
    2.2077   -1.1754   -2.1650 C   0  0  2  0  0  0  0  0  0  0  0  0
    3.2353   -0.7984   -2.3768 H   0  0  0  0  0  0  0  0  0  0  0  0
    1.6553   -0.3163   -1.1639 O   0  0  0  0  0  0  0  0  0  0  0  0
    1.4907   -1.0975   -3.3960 O   0  0  0  0  0  0  0  0  0  0  0  0
    2.8090   -3.4532   -2.6757 O   0  0  0  0  0  0  0  0  0  0  0  0
    1.2211   -4.3586   -0.4301 O   0  0  0  0  0  0  0  0  0  0  0  0
   -0.9852   -2.4860    0.1441 O   0  0  0  0  0  0  0  0  0  0  0  0
    0.0005   -0.0003    0.0004 H   0  0  0  0  0  0  0  0  0  0  0  0
   -0.3510   -0.6424   -1.5883 H   0  0  0  0  0  0  0  0  0  0  0  0
    1.4739   -0.1609   -3.6447 H   0  0  0  0  0  0  0  0  0  0  0  0
    3.6545   -3.0755   -2.9653 H   0  0  0  0  0  0  0  0  0  0  0  0
    1.6120   -4.9635   -1.0785 H   0  0  0  0  0  0  0  0  0  0  0  0
   -0.9535   -3.3793    0.5213 H   0  0  0  0  0  0  0  0  0  0  0  0
  1 10  1  0
  1  2  1  0
  2  3  1  1
  2  4  1  0
  4  5  1  6
  4  6  1  0
  6  7  1  1
  6  8  1  0
  8  9  1  6
  8 10  1  0
  8 11  1  0
  6 12  1  0
  4 13  1  0
  2 14  1  0
  1 15  1  0
  1 16  1  0
 11 17  1  0
 12 18  1  0
 13 19  1  0
 14 20  1  0
M  END
>  <_TriposChargeType>  (72) 
USER_CHARGES

>  <solvdG>  (72) 
-20.52

>  <fdG>  (72) 
-14.15

>  <fname>  (72) 
mobley_1896013

>  <cname>  (72) 
 (2S,3R,4S,5R)-oxane-2,3,4,5-tetrol

>  <dataset>  (72) 
FreeSolv

$$$$
2-methylpent-1-ene
     RDKit          3D

 18 17  0  0  0  0  0  0  0  0999 V2000
   -2.9333   -0.8839    3.6715 C   0  0  0  0  0  0  0  0  0  0  0  0
   -1.5053   -0.4733    3.3453 C   0  0  0  0  0  0  0  0  0  0  0  0
   -1.4664    0.5635    2.2201 C   0  0  0  0  0  0  0  0  0  0  0  0
   -0.0603    0.9915    1.8730 C   0  0  0  0  0  0  0  0  0  0  0  0
    0.4425    0.8136    0.6414 C   0  0  0  0  0  0  0  0  0  0  0  0
    0.7386    1.6590    2.9554 C   0  0  0  0  0  0  0  0  0  0  0  0
   -2.9545   -1.6252    4.4767 H   0  0  0  0  0  0  0  0  0  0  0  0
   -3.4277   -1.3137    2.7946 H   0  0  0  0  0  0  0  0  0  0  0  0
   -3.5128   -0.0138    3.9961 H   0  0  0  0  0  0  0  0  0  0  0  0
   -1.0391   -0.0708    4.2518 H   0  0  0  0  0  0  0  0  0  0  0  0
   -0.9337   -1.3634    3.0558 H   0  0  0  0  0  0  0  0  0  0  0  0
   -1.9639    0.1484    1.3336 H   0  0  0  0  0  0  0  0  0  0  0  0
   -2.0489    1.4487    2.5052 H   0  0  0  0  0  0  0  0  0  0  0  0
    1.4483    1.1332    0.3898 H   0  0  0  0  0  0  0  0  0  0  0  0
   -0.1393    0.3414   -0.1434 H   0  0  0  0  0  0  0  0  0  0  0  0
    1.2941    0.9127    3.5327 H   0  0  0  0  0  0  0  0  0  0  0  0
    1.4516    2.3702    2.5276 H   0  0  0  0  0  0  0  0  0  0  0  0
    0.1018    2.2106    3.6555 H   0  0  0  0  0  0  0  0  0  0  0  0
  1  2  1  0
  2  3  1  0
  3  4  1  0
  4  5  2  3
  4  6  1  0
  1  7  1  0
  1  8  1  0
  1  9  1  0
  2 10  1  0
  2 11  1  0
  3 12  1  0
  3 13  1  0
  5 14  1  0
  5 15  1  0
  6 16  1  0
  6 17  1  0
  6 18  1  0
M  END
>  <_TriposChargeType>  (73) 
USER_CHARGES

>  <solvdG>  (73) 
1.47

>  <fdG>  (73) 
2.49

>  <fname>  (73) 
mobley_1899443

>  <cname>  (73) 
 2-methylpent-1-ene

>  <dataset>  (73) 
FreeSolv

$$$$
(2S)-butan-2-ol
     RDKit          3D

 15 14  0  0  0  0  0  0  0  0999 V2000
    0.9784   -0.0326   -0.2360 C   0  0  0  0  0  0  0  0  0  0  0  0
    1.4098    0.6794   -1.5114 C   0  0  0  0  0  0  0  0  0  0  0  0
    0.6395    0.1877   -2.7386 C   0  0  2  0  0  0  0  0  0  0  0  0
    0.8085   -0.8858   -2.8804 H   0  0  0  0  0  0  0  0  0  0  0  0
    1.0608    0.9421   -3.9925 C   0  0  0  0  0  0  0  0  0  0  0  0
   -0.7550    0.3897   -2.5267 O   0  0  0  0  0  0  0  0  0  0  0  0
    1.5425    0.3354    0.6270 H   0  0  0  0  0  0  0  0  0  0  0  0
    1.1302   -1.1138   -0.3115 H   0  0  0  0  0  0  0  0  0  0  0  0
   -0.0850    0.1451   -0.0463 H   0  0  0  0  0  0  0  0  0  0  0  0
    2.4847    0.5237   -1.6590 H   0  0  0  0  0  0  0  0  0  0  0  0
    1.2456    1.7551   -1.3741 H   0  0  0  0  0  0  0  0  0  0  0  0
    0.5068    0.5869   -4.8686 H   0  0  0  0  0  0  0  0  0  0  0  0
    0.8954    2.0183   -3.8841 H   0  0  0  0  0  0  0  0  0  0  0  0
    2.1225    0.7735   -4.2027 H   0  0  0  0  0  0  0  0  0  0  0  0
   -1.2053    0.0669   -3.3228 H   0  0  0  0  0  0  0  0  0  0  0  0
  1  2  1  0
  2  3  1  0
  3  4  1  6
  3  5  1  0
  3  6  1  0
  1  7  1  0
  1  8  1  0
  1  9  1  0
  2 10  1  0
  2 11  1  0
  5 12  1  0
  5 13  1  0
  5 14  1  0
  6 15  1  0
M  END
>  <_TriposChargeType>  (74) 
USER_CHARGES

>  <solvdG>  (74) 
-4.62

>  <fdG>  (74) 
-3.15

>  <fname>  (74) 
mobley_1903702

>  <cname>  (74) 
 butan-2-ol

>  <dataset>  (74) 
FreeSolv

$$$$
bromomethylbenzene
     RDKit          3D

 15 15  0  0  0  0  0  0  0  0999 V2000
    1.8851   -1.0363   -0.1124 C   0  0  0  0  0  0  0  0  0  0  0  0
    2.9210   -1.6309    0.6081 C   0  0  0  0  0  0  0  0  0  0  0  0
    2.8783   -1.6520    2.0022 C   0  0  0  0  0  0  0  0  0  0  0  0
    1.7997   -1.0786    2.6757 C   0  0  0  0  0  0  0  0  0  0  0  0
    0.7638   -0.4841    1.9551 C   0  0  0  0  0  0  0  0  0  0  0  0
    0.8066   -0.4630    0.5610 C   0  0  0  0  0  0  0  0  0  0  0  0
    1.7548   -1.1014    4.1663 C   0  0  0  0  0  0  0  0  0  0  0  0
    2.6201    0.4934    4.8679 Br  0  0  0  0  0  0  0  0  0  0  0  0
    1.9176   -1.0210   -1.1980 H   0  0  0  0  0  0  0  0  0  0  0  0
    3.7604   -2.0783    0.0841 H   0  0  0  0  0  0  0  0  0  0  0  0
    3.6899   -2.1173    2.5553 H   0  0  0  0  0  0  0  0  0  0  0  0
   -0.0804   -0.0348    2.4713 H   0  0  0  0  0  0  0  0  0  0  0  0
   -0.0006   -0.0010    0.0001 H   0  0  0  0  0  0  0  0  0  0  0  0
    2.2831   -1.9656    4.5846 H   0  0  0  0  0  0  0  0  0  0  0  0
    0.7284   -1.1071    4.5509 H   0  0  0  0  0  0  0  0  0  0  0  0
  1  6  2  0
  1  2  1  0
  2  3  2  0
  3  4  1  0
  4  5  2  0
  5  6  1  0
  4  7  1  0
  7  8  1  0
  1  9  1  0
  2 10  1  0
  3 11  1  0
  5 12  1  0
  6 13  1  0
  7 14  1  0
  7 15  1  0
M  END
>  <_TriposChargeType>  (75) 
USER_CHARGES

>  <solvdG>  (75) 
-2.38

>  <fdG>  (75) 
-1.85

>  <fname>  (75) 
mobley_1905088

>  <cname>  (75) 
 benzyl bromide

>  <dataset>  (75) 
FreeSolv

$$$$
dimethoxy-(4-nitrophenoxy)-thioxo-$l^{5}-phosphane
     RDKit          3D

 26 26  0  0  0  0  0  0  0  0999 V2000
   -0.0167    0.3795   -0.6305 C   0  0  0  0  0  0  0  0  0  0  0  0
    0.6451   -0.3887   -1.6215 O   0  0  0  0  0  0  0  0  0  0  0  0
   -0.2256   -1.2121   -2.7243 P   0  0  0  0  0  5  0  0  0  0  0  0
   -1.4458   -2.5576   -2.0140 S   0  0  0  0  0  0  0  0  0  0  0  0
    0.9500   -1.7249   -3.7254 O   0  0  0  0  0  0  0  0  0  0  0  0
    1.9856   -2.5554   -3.2285 C   0  0  0  0  0  0  0  0  0  0  0  0
   -0.8843    0.0037   -3.5707 O   0  0  0  0  0  0  0  0  0  0  0  0
   -1.7272   -0.1140   -4.6428 C   0  0  0  0  0  0  0  0  0  0  0  0
   -1.6293   -1.2188   -5.4887 C   0  0  0  0  0  0  0  0  0  0  0  0
   -2.4883   -1.3390   -6.5812 C   0  0  0  0  0  0  0  0  0  0  0  0
   -3.4450   -0.3543   -6.8278 C   0  0  0  0  0  0  0  0  0  0  0  0
   -3.5428    0.7505   -5.9818 C   0  0  0  0  0  0  0  0  0  0  0  0
   -2.6838    0.8706   -4.8894 C   0  0  0  0  0  0  0  0  0  0  0  0
   -4.3192   -0.4768   -7.9400 N   0  0  0  0  0  4  0  0  0  0  0  0
   -5.1728    0.4200   -8.1439 O   0  0  0  0  0  0  0  0  0  0  0  0
   -4.2144   -1.4784   -8.6884 O   0  0  0  0  0  1  0  0  0  0  0  0
    0.7236    0.8574    0.0157 H   0  0  0  0  0  0  0  0  0  0  0  0
   -0.6673   -0.2698   -0.0391 H   0  0  0  0  0  0  0  0  0  0  0  0
   -0.6197    1.1477   -1.1202 H   0  0  0  0  0  0  0  0  0  0  0  0
    2.6779   -2.7969   -4.0381 H   0  0  0  0  0  0  0  0  0  0  0  0
    1.5526   -3.4705   -2.8182 H   0  0  0  0  0  0  0  0  0  0  0  0
    2.5203   -2.0210   -2.4405 H   0  0  0  0  0  0  0  0  0  0  0  0
   -0.8859   -1.9890   -5.3019 H   0  0  0  0  0  0  0  0  0  0  0  0
   -2.4009   -2.2050   -7.2327 H   0  0  0  0  0  0  0  0  0  0  0  0
   -4.2842    1.5249   -6.1624 H   0  0  0  0  0  0  0  0  0  0  0  0
   -2.7649    1.7334   -4.2338 H   0  0  0  0  0  0  0  0  0  0  0  0
  1  2  1  0
  2  3  1  0
  3  4  2  0
  3  5  1  0
  5  6  1  0
  3  7  1  0
  7  8  1  0
  8 13  2  0
  8  9  1  0
  9 10  2  0
 10 11  1  0
 11 12  2  0
 12 13  1  0
 11 14  1  0
 14 15  2  0
 14 16  1  0
  1 17  1  0
  1 18  1  0
  1 19  1  0
  6 20  1  0
  6 21  1  0
  6 22  1  0
  9 23  1  0
 10 24  1  0
 12 25  1  0
 13 26  1  0
M  CHG  2  14   1  16  -1
M  END
>  <_TriposChargeType>  (76) 
USER_CHARGES

>  <solvdG>  (76) 
-7.19

>  <fdG>  (76) 
-10.47

>  <fname>  (76) 
mobley_1922649

>  <cname>  (76) 
 methylparathion

>  <dataset>  (76) 
FreeSolv

$$$$
butane
     RDKit          3D

 14 13  0  0  0  0  0  0  0  0999 V2000
    0.4048   -0.7298    0.7083 C   0  0  0  0  0  0  0  0  0  0  0  0
    1.6372   -0.1820    1.4100 C   0  0  0  0  0  0  0  0  0  0  0  0
    1.3160    1.0885    2.1945 C   0  0  0  0  0  0  0  0  0  0  0  0
    2.5483    1.6364    2.8963 C   0  0  0  0  0  0  0  0  0  0  0  0
    0.6439   -1.6398    0.1488 H   0  0  0  0  0  0  0  0  0  0  0  0
   -0.3842   -0.9665    1.4292 H   0  0  0  0  0  0  0  0  0  0  0  0
    0.0102    0.0088    0.0033 H   0  0  0  0  0  0  0  0  0  0  0  0
    2.0358   -0.9470    2.0866 H   0  0  0  0  0  0  0  0  0  0  0  0
    2.4129    0.0268    0.6640 H   0  0  0  0  0  0  0  0  0  0  0  0
    0.9176    1.8536    1.5178 H   0  0  0  0  0  0  0  0  0  0  0  0
    0.5402    0.8797    2.9404 H   0  0  0  0  0  0  0  0  0  0  0  0
    2.3090    2.5464    3.4558 H   0  0  0  0  0  0  0  0  0  0  0  0
    3.3241    1.8815    2.1641 H   0  0  0  0  0  0  0  0  0  0  0  0
    2.9610    0.9017    3.5952 H   0  0  0  0  0  0  0  0  0  0  0  0
  1  2  1  0
  2  3  1  0
  3  4  1  0
  1  5  1  0
  1  6  1  0
  1  7  1  0
  2  8  1  0
  2  9  1  0
  3 10  1  0
  3 11  1  0
  4 12  1  0
  4 13  1  0
  4 14  1  0
M  END
>  <_TriposChargeType>  (77) 
USER_CHARGES

>  <solvdG>  (77) 
2.1

>  <fdG>  (77) 
2.59

>  <fname>  (77) 
mobley_1923244

>  <cname>  (77) 
 n-butane

>  <dataset>  (77) 
FreeSolv

$$$$
hydrogen sulfide
     RDKit          3D

  3  2  0  0  0  0  0  0  0  0999 V2000
   -0.4574   -0.3303    0.2403 S   0  0  0  0  0  0  0  0  0  0  0  0
    0.0280    0.8930    0.4980 H   0  0  0  0  0  0  0  0  0  0  0  0
    0.4294   -0.5627   -0.7383 H   0  0  0  0  0  0  0  0  0  0  0  0
  1  2  1  0
  1  3  1  0
M  END
>  <_TriposChargeType>  (78) 
USER_CHARGES

>  <solvdG>  (78) 
-0.7

>  <fdG>  (78) 
-1.14

>  <fname>  (78) 
mobley_1929982

>  <cname>  (78) 
 hydrogen sulfide

>  <dataset>  (78) 
FreeSolv

$$$$
5-bromo-6-methyl-3-[(1S)-1-methylpropyl]-1H-pyrimidine-2,4-dione
     RDKit          3D

 27 27  0  0  0  0  0  0  0  0999 V2000
   -6.2539   -3.0926   -4.7227 C   0  0  0  0  0  0  0  0  0  0  0  0
   -5.0417   -2.9107   -3.8182 C   0  0  0  0  0  0  0  0  0  0  0  0
   -5.0559   -1.5706   -3.0716 C   0  0  2  0  0  0  0  0  0  0  0  0
   -5.0602   -0.7477   -3.7957 H   0  0  0  0  0  0  0  0  0  0  0  0
   -3.8264   -1.4337   -2.1796 C   0  0  0  0  0  0  0  0  0  0  0  0
   -6.2615   -1.4221   -2.2638 N   0  0  0  0  0  0  0  0  0  0  0  0
   -6.5157   -2.3600   -1.2534 C   0  0  0  0  0  0  0  0  0  0  0  0
   -5.7841   -3.3162   -0.9969 O   0  0  0  0  0  0  0  0  0  0  0  0
   -7.7735   -2.1372   -0.4670 C   0  0  0  0  0  0  0  0  0  0  0  0
   -8.5619   -1.0897   -0.7652 C   0  0  0  0  0  0  0  0  0  0  0  0
   -8.2259   -0.2257   -1.7803 N   0  0  0  0  0  0  0  0  0  0  0  0
   -7.0956   -0.3296   -2.5689 C   0  0  0  0  0  0  0  0  0  0  0  0
   -6.8631    0.4864   -3.4644 O   0  0  0  0  0  0  0  0  0  0  0  0
   -9.8501   -0.7304   -0.0748 C   0  0  0  0  0  0  0  0  0  0  0  0
   -8.1293   -3.3786    0.8917 Br  0  0  0  0  0  0  0  0  0  0  0  0
   -6.2231   -4.0539   -5.2446 H   0  0  0  0  0  0  0  0  0  0  0  0
   -7.1735   -3.0630   -4.1295 H   0  0  0  0  0  0  0  0  0  0  0  0
   -6.3079   -2.2951   -5.4705 H   0  0  0  0  0  0  0  0  0  0  0  0
   -5.0263   -3.7333   -3.0929 H   0  0  0  0  0  0  0  0  0  0  0  0
   -4.1308   -2.9983   -4.4234 H   0  0  0  0  0  0  0  0  0  0  0  0
   -3.8337   -0.4781   -1.6453 H   0  0  0  0  0  0  0  0  0  0  0  0
   -3.7808   -2.2402   -1.4391 H   0  0  0  0  0  0  0  0  0  0  0  0
   -2.9076   -1.4813   -2.7745 H   0  0  0  0  0  0  0  0  0  0  0  0
   -8.8575    0.5490   -1.9648 H   0  0  0  0  0  0  0  0  0  0  0  0
   -9.6370   -0.0643    0.7560 H   0  0  0  0  0  0  0  0  0  0  0  0
  -10.3251   -1.6361    0.2913 H   0  0  0  0  0  0  0  0  0  0  0  0
  -10.5102   -0.2375   -0.7827 H   0  0  0  0  0  0  0  0  0  0  0  0
  1  2  1  0
  2  3  1  0
  3  4  1  6
  3  5  1  0
  3  6  1  0
  6 12  1  0
  6  7  1  0
  7  8  2  0
  7  9  1  0
  9 10  2  0
 10 11  1  0
 11 12  1  0
 12 13  2  0
 10 14  1  0
  9 15  1  0
  1 16  1  0
  1 17  1  0
  1 18  1  0
  2 19  1  0
  2 20  1  0
  5 21  1  0
  5 22  1  0
  5 23  1  0
 11 24  1  0
 14 25  1  0
 14 26  1  0
 14 27  1  0
M  END
>  <_TriposChargeType>  (79) 
USER_CHARGES

>  <solvdG>  (79) 
-9.73

>  <fdG>  (79) 
-14.5

>  <fname>  (79) 
mobley_194273

>  <cname>  (79) 
 bromacil

>  <dataset>  (79) 
FreeSolv

$$$$
2-benzhydryloxy-N,N-dimethyl-ethanamine
     RDKit          3D

 40 41  0  0  0  0  0  0  0  0999 V2000
   -3.0309   -4.3987    0.7979 C   0  0  0  0  0  0  0  0  0  0  0  0
   -2.9518   -3.6838    2.0713 N   0  0  0  0  0  0  0  0  0  0  0  0
   -4.0460   -2.7203    2.1854 C   0  0  0  0  0  0  0  0  0  0  0  0
   -1.6607   -3.0087    2.1990 C   0  0  0  0  0  0  0  0  0  0  0  0
   -0.5878   -4.0001    2.6333 C   0  0  0  0  0  0  0  0  0  0  0  0
    0.6560   -3.3210    2.7503 O   0  0  0  0  0  0  0  0  0  0  0  0
    1.6948   -4.2023    3.1542 C   0  0  0  0  0  0  0  0  0  0  0  0
    2.2024   -5.0019    1.9681 C   0  0  0  0  0  0  0  0  0  0  0  0
    2.7128   -6.2859    2.1598 C   0  0  0  0  0  0  0  0  0  0  0  0
    3.1794   -7.0208    1.0700 C   0  0  0  0  0  0  0  0  0  0  0  0
    3.1357   -6.4718   -0.2116 C   0  0  0  0  0  0  0  0  0  0  0  0
    2.6253   -5.1879   -0.4033 C   0  0  0  0  0  0  0  0  0  0  0  0
    2.1587   -4.4529    0.6866 C   0  0  0  0  0  0  0  0  0  0  0  0
    2.8107   -3.4740    3.8856 C   0  0  0  0  0  0  0  0  0  0  0  0
    3.5526   -4.1371    4.8631 C   0  0  0  0  0  0  0  0  0  0  0  0
    4.5765   -3.4689    5.5345 C   0  0  0  0  0  0  0  0  0  0  0  0
    4.8584   -2.1375    5.2284 C   0  0  0  0  0  0  0  0  0  0  0  0
    4.1164   -1.4744    4.2509 C   0  0  0  0  0  0  0  0  0  0  0  0
    3.0925   -2.1427    3.5795 C   0  0  0  0  0  0  0  0  0  0  0  0
   -2.2108   -5.1170    0.7187 H   0  0  0  0  0  0  0  0  0  0  0  0
   -2.9636   -3.6944   -0.0357 H   0  0  0  0  0  0  0  0  0  0  0  0
   -3.9792   -4.9379    0.7255 H   0  0  0  0  0  0  0  0  0  0  0  0
   -3.9624   -2.2061    3.1369 H   0  0  0  0  0  0  0  0  0  0  0  0
   -4.9906   -3.2512    2.1317 H   0  0  0  0  0  0  0  0  0  0  0  0
   -3.9750   -2.0077    1.3705 H   0  0  0  0  0  0  0  0  0  0  0  0
   -1.7505   -2.1931    2.9323 H   0  0  0  0  0  0  0  0  0  0  0  0
   -1.3867   -2.5705    1.2279 H   0  0  0  0  0  0  0  0  0  0  0  0
   -0.4709   -4.7934    1.8886 H   0  0  0  0  0  0  0  0  0  0  0  0
   -0.8349   -4.4513    3.5998 H   0  0  0  0  0  0  0  0  0  0  0  0
    1.2162   -4.8983    3.8589 H   0  0  0  0  0  0  0  0  0  0  0  0
    2.7510   -6.7211    3.1549 H   0  0  0  0  0  0  0  0  0  0  0  0
    3.5766   -8.0206    1.2193 H   0  0  0  0  0  0  0  0  0  0  0  0
    3.4988   -7.0439   -1.0604 H   0  0  0  0  0  0  0  0  0  0  0  0
    2.5917   -4.7602   -1.4010 H   0  0  0  0  0  0  0  0  0  0  0  0
    1.7624   -3.4536    0.5272 H   0  0  0  0  0  0  0  0  0  0  0  0
    3.3394   -5.1742    5.1081 H   0  0  0  0  0  0  0  0  0  0  0  0
    5.1543   -3.9853    6.2954 H   0  0  0  0  0  0  0  0  0  0  0  0
    5.6557   -1.6170    5.7510 H   0  0  0  0  0  0  0  0  0  0  0  0
    4.3356   -0.4377    4.0130 H   0  0  0  0  0  0  0  0  0  0  0  0
    2.5202   -1.6177    2.8192 H   0  0  0  0  0  0  0  0  0  0  0  0
  1  2  1  0
  2  3  1  0
  2  4  1  0
  4  5  1  0
  5  6  1  0
  6  7  1  0
  7  8  1  0
  8 13  1  0
  8  9  2  0
  9 10  1  0
 10 11  2  0
 11 12  1  0
 12 13  2  0
  7 14  1  0
 14 19  1  0
 14 15  2  0
 15 16  1  0
 16 17  2  0
 17 18  1  0
 18 19  2  0
  1 20  1  0
  1 21  1  0
  1 22  1  0
  3 23  1  0
  3 24  1  0
  3 25  1  0
  4 26  1  0
  4 27  1  0
  5 28  1  0
  5 29  1  0
  7 30  1  0
  9 31  1  0
 10 32  1  0
 11 33  1  0
 12 34  1  0
 13 35  1  0
 15 36  1  0
 16 37  1  0
 17 38  1  0
 18 39  1  0
 19 40  1  0
M  END
>  <_TriposChargeType>  (80) 
USER_CHARGES

>  <solvdG>  (80) 
-9.34

>  <fdG>  (80) 
-7.87

>  <fname>  (80) 
mobley_1944394

>  <cname>  (80) 
 [2-benzhydryloxyethyl]-dimethyl-amine

>  <dataset>  (80) 
FreeSolv

$$$$
nitromethane
     RDKit          3D

  7  6  0  0  0  0  0  0  0  0999 V2000
   -0.5250   -0.7555    0.5873 C   0  0  0  0  0  0  0  0  0  0  0  0
   -1.8333   -0.9731   -0.0158 N   0  0  0  0  0  4  0  0  0  0  0  0
   -2.4132   -2.0586    0.2080 O   0  0  0  0  0  0  0  0  0  0  0  0
   -2.3095   -0.0741   -0.7435 O   0  0  0  0  0  1  0  0  0  0  0  0
    0.2340   -1.1194   -0.1073 H   0  0  0  0  0  0  0  0  0  0  0  0
   -0.4863   -1.3090    1.5273 H   0  0  0  0  0  0  0  0  0  0  0  0
   -0.4051    0.3147    0.7650 H   0  0  0  0  0  0  0  0  0  0  0  0
  1  2  1  0
  2  3  2  0
  2  4  1  0
  1  5  1  0
  1  6  1  0
  1  7  1  0
M  CHG  2   2   1   4  -1
M  END
>  <_TriposChargeType>  (81) 
USER_CHARGES

>  <solvdG>  (81) 
-4.02

>  <fdG>  (81) 
-2.08

>  <fname>  (81) 
mobley_1952272

>  <cname>  (81) 
 nitromethane

>  <dataset>  (81) 
FreeSolv

$$$$
N-methylacetamide
     RDKit          3D

 12 11  0  0  0  0  0  0  0  0999 V2000
    0.9501   -0.2286    0.5090 C   0  0  0  0  0  0  0  0  0  0  0  0
    0.7453   -0.9428    1.8037 C   0  0  0  0  0  0  0  0  0  0  0  0
    0.1659   -2.0225    1.8130 O   0  0  0  0  0  0  0  0  0  0  0  0
    1.2543   -0.2751    2.9012 N   0  0  0  0  0  0  0  0  0  0  0  0
    1.1634   -0.7869    4.2498 C   0  0  0  0  0  0  0  0  0  0  0  0
    0.1175    0.4515    0.2676 H   0  0  0  0  0  0  0  0  0  0  0  0
    1.8511    0.4056    0.5166 H   0  0  0  0  0  0  0  0  0  0  0  0
    1.0601   -0.8772   -0.3748 H   0  0  0  0  0  0  0  0  0  0  0  0
    1.7145    0.6181    2.7531 H   0  0  0  0  0  0  0  0  0  0  0  0
    2.0378   -1.3998    4.4702 H   0  0  0  0  0  0  0  0  0  0  0  0
    0.2640   -1.3948    4.3548 H   0  0  0  0  0  0  0  0  0  0  0  0
    1.1188    0.0415    4.9576 H   0  0  0  0  0  0  0  0  0  0  0  0
  1  2  1  0
  2  3  2  0
  2  4  1  0
  4  5  1  0
  1  6  1  0
  1  7  1  0
  1  8  1  0
  4  9  1  0
  5 10  1  0
  5 11  1  0
  5 12  1  0
M  END
>  <_TriposChargeType>  (82) 
USER_CHARGES

>  <solvdG>  (82) 
-10.0

>  <fdG>  (82) 
-8.28

>  <fname>  (82) 
mobley_1963873

>  <cname>  (82) 
 N-methylacetamide

>  <dataset>  (82) 
FreeSolv

$$$$
acetaldehyde
     RDKit          3D

  7  6  0  0  0  0  0  0  0  0999 V2000
   -0.5886   -0.9197   -0.0340 C   0  0  0  0  0  0  0  0  0  0  0  0
   -1.5033   -0.9603    1.1512 C   0  0  0  0  0  0  0  0  0  0  0  0
   -1.4762   -1.8492    1.9958 O   0  0  0  0  0  0  0  0  0  0  0  0
   -1.0567   -1.4519   -0.8653 H   0  0  0  0  0  0  0  0  0  0  0  0
   -0.3991    0.1162   -0.3261 H   0  0  0  0  0  0  0  0  0  0  0  0
    0.3559   -1.4026    0.2267 H   0  0  0  0  0  0  0  0  0  0  0  0
   -2.2225   -0.1273    1.2270 H   0  0  0  0  0  0  0  0  0  0  0  0
  1  2  1  0
  2  3  2  0
  1  4  1  0
  1  5  1  0
  1  6  1  0
  2  7  1  0
M  END
>  <_TriposChargeType>  (83) 
USER_CHARGES

>  <solvdG>  (83) 
-3.5

>  <fdG>  (83) 
-3.37

>  <fname>  (83) 
mobley_1967551

>  <cname>  (83) 
 acetaldehyde

>  <dataset>  (83) 
FreeSolv

$$$$
1-cyclopropylethanone
     RDKit          3D

 14 14  0  0  0  0  0  0  0  0999 V2000
    0.1358   -2.6141    1.3930 C   0  0  0  0  0  0  0  0  0  0  0  0
   -0.8196   -1.5947    0.8341 C   0  0  0  0  0  0  0  0  0  0  0  0
   -2.0313   -1.8020    0.7904 O   0  0  0  0  0  0  0  0  0  0  0  0
   -0.2350   -0.3431    0.3417 C   0  0  0  0  0  0  0  0  0  0  0  0
    0.9244   -0.3973   -0.6165 C   0  0  0  0  0  0  0  0  0  0  0  0
   -0.4244    0.0435   -1.1005 C   0  0  0  0  0  0  0  0  0  0  0  0
    0.4731   -3.2774    0.5926 H   0  0  0  0  0  0  0  0  0  0  0  0
    0.9898   -2.1054    1.8468 H   0  0  0  0  0  0  0  0  0  0  0  0
   -0.3678   -3.2111    2.1582 H   0  0  0  0  0  0  0  0  0  0  0  0
   -0.2294    0.4669    1.0636 H   0  0  0  0  0  0  0  0  0  0  0  0
    1.7004    0.3541   -0.5362 H   0  0  0  0  0  0  0  0  0  0  0  0
    1.2772   -1.3736   -0.9259 H   0  0  0  0  0  0  0  0  0  0  0  0
   -0.5538    1.0909   -1.3449 H   0  0  0  0  0  0  0  0  0  0  0  0
   -0.9796   -0.6361   -1.7356 H   0  0  0  0  0  0  0  0  0  0  0  0
  1  2  1  0
  2  3  2  0
  2  4  1  0
  4  6  1  0
  4  5  1  0
  5  6  1  0
  1  7  1  0
  1  8  1  0
  1  9  1  0
  4 10  1  0
  5 11  1  0
  5 12  1  0
  6 13  1  0
  6 14  1  0
M  END
>  <_TriposChargeType>  (84) 
USER_CHARGES

>  <solvdG>  (84) 
-4.61

>  <fdG>  (84) 
-3.04

>  <fname>  (84) 
mobley_197466

>  <cname>  (84) 
 1-cyclopropylethanone

>  <dataset>  (84) 
FreeSolv

$$$$
nonanal
     RDKit          3D

 28 27  0  0  0  0  0  0  0  0999 V2000
   -0.9117    4.8982    0.7780 C   0  0  0  0  0  0  0  0  0  0  0  0
   -1.4575    3.4803    0.8530 C   0  0  0  0  0  0  0  0  0  0  0  0
   -0.5027    2.4803    0.1998 C   0  0  0  0  0  0  0  0  0  0  0  0
   -1.0077    1.0354    0.2493 C   0  0  0  0  0  0  0  0  0  0  0  0
   -0.0524    0.0344   -0.4043 C   0  0  0  0  0  0  0  0  0  0  0  0
   -0.6057   -1.3910   -0.3265 C   0  0  0  0  0  0  0  0  0  0  0  0
    0.3501   -2.3938   -0.9806 C   0  0  0  0  0  0  0  0  0  0  0  0
   -0.1751   -3.8255   -0.9186 C   0  0  0  0  0  0  0  0  0  0  0  0
    0.7420   -4.8442   -1.5546 C   0  0  0  0  0  0  0  0  0  0  0  0
    1.8181   -4.5871   -2.0831 O   0  0  0  0  0  0  0  0  0  0  0  0
   -1.5995    5.6091    1.2471 H   0  0  0  0  0  0  0  0  0  0  0  0
    0.0492    4.9623    1.2981 H   0  0  0  0  0  0  0  0  0  0  0  0
   -0.7568    5.2043   -0.2615 H   0  0  0  0  0  0  0  0  0  0  0  0
   -2.4331    3.4443    0.3550 H   0  0  0  0  0  0  0  0  0  0  0  0
   -1.6180    3.2228    1.9052 H   0  0  0  0  0  0  0  0  0  0  0  0
    0.4829    2.5421    0.6773 H   0  0  0  0  0  0  0  0  0  0  0  0
   -0.3607    2.7561   -0.8526 H   0  0  0  0  0  0  0  0  0  0  0  0
   -1.9758    0.9944   -0.2655 H   0  0  0  0  0  0  0  0  0  0  0  0
   -1.1923    0.7458    1.2911 H   0  0  0  0  0  0  0  0  0  0  0  0
    0.1070    0.3095   -1.4538 H   0  0  0  0  0  0  0  0  0  0  0  0
    0.9233    0.0663    0.0930 H   0  0  0  0  0  0  0  0  0  0  0  0
   -0.7734   -1.6581    0.7231 H   0  0  0  0  0  0  0  0  0  0  0  0
   -1.5797   -1.4336   -0.8291 H   0  0  0  0  0  0  0  0  0  0  0  0
    0.4822   -2.1187   -2.0342 H   0  0  0  0  0  0  0  0  0  0  0  0
    1.3375   -2.3308   -0.5077 H   0  0  0  0  0  0  0  0  0  0  0  0
   -0.3535   -4.1294    0.1182 H   0  0  0  0  0  0  0  0  0  0  0  0
   -1.1289   -3.8867   -1.4542 H   0  0  0  0  0  0  0  0  0  0  0  0
    0.3645   -5.8815   -1.5366 H   0  0  0  0  0  0  0  0  0  0  0  0
  1  2  1  0
  2  3  1  0
  3  4  1  0
  4  5  1  0
  5  6  1  0
  6  7  1  0
  7  8  1  0
  8  9  1  0
  9 10  2  0
  1 11  1  0
  1 12  1  0
  1 13  1  0
  2 14  1  0
  2 15  1  0
  3 16  1  0
  3 17  1  0
  4 18  1  0
  4 19  1  0
  5 20  1  0
  5 21  1  0
  6 22  1  0
  6 23  1  0
  7 24  1  0
  7 25  1  0
  8 26  1  0
  8 27  1  0
  9 28  1  0
M  END
>  <_TriposChargeType>  (85) 
USER_CHARGES

>  <solvdG>  (85) 
-2.07

>  <fdG>  (85) 
-2.34

>  <fname>  (85) 
mobley_1976156

>  <cname>  (85) 
 nonanal

>  <dataset>  (85) 
FreeSolv

$$$$
1-chloropropane
     RDKit          3D

 11 10  0  0  0  0  0  0  0  0999 V2000
    0.3674    0.5015    0.9011 C   0  0  0  0  0  0  0  0  0  0  0  0
    0.8898   -0.5275    1.8937 C   0  0  0  0  0  0  0  0  0  0  0  0
    1.5185    0.0929    3.1358 C   0  0  0  0  0  0  0  0  0  0  0  0
    2.1155   -1.1414    4.2688 Cl  0  0  0  0  0  0  0  0  0  0  0  0
   -0.0745    0.0132    0.0267 H   0  0  0  0  0  0  0  0  0  0  0  0
   -0.4063    1.1168    1.3715 H   0  0  0  0  0  0  0  0  0  0  0  0
    1.1609    1.1718    0.5581 H   0  0  0  0  0  0  0  0  0  0  0  0
    0.0767   -1.2052    2.1794 H   0  0  0  0  0  0  0  0  0  0  0  0
    1.6480   -1.1389    1.3902 H   0  0  0  0  0  0  0  0  0  0  0  0
    0.8000    0.7215    3.6706 H   0  0  0  0  0  0  0  0  0  0  0  0
    2.3738    0.7144    2.8539 H   0  0  0  0  0  0  0  0  0  0  0  0
  1  2  1  0
  2  3  1  0
  3  4  1  0
  1  5  1  0
  1  6  1  0
  1  7  1  0
  2  8  1  0
  2  9  1  0
  3 10  1  0
  3 11  1  0
M  END
>  <_TriposChargeType>  (86) 
USER_CHARGES

>  <solvdG>  (86) 
-0.33

>  <fdG>  (86) 
0.97

>  <fname>  (86) 
mobley_1977493

>  <cname>  (86) 
 1-chloropropane

>  <dataset>  (86) 
FreeSolv

$$$$
mesitylene
     RDKit          3D

 21 21  0  0  0  0  0  0  0  0999 V2000
    1.9309   -1.0137   -1.6029 C   0  0  0  0  0  0  0  0  0  0  0  0
    1.8851   -1.0363   -0.1124 C   0  0  0  0  0  0  0  0  0  0  0  0
    2.9210   -1.6309    0.6081 C   0  0  0  0  0  0  0  0  0  0  0  0
    2.8783   -1.6520    2.0022 C   0  0  0  0  0  0  0  0  0  0  0  0
    1.7997   -1.0786    2.6757 C   0  0  0  0  0  0  0  0  0  0  0  0
    0.7638   -0.4841    1.9551 C   0  0  0  0  0  0  0  0  0  0  0  0
    0.8066   -0.4630    0.5610 C   0  0  0  0  0  0  0  0  0  0  0  0
   -0.3894    0.1289    2.6751 C   0  0  0  0  0  0  0  0  0  0  0  0
    3.9858   -2.2877    2.7726 C   0  0  0  0  0  0  0  0  0  0  0  0
    2.4387   -0.1080   -1.9483 H   0  0  0  0  0  0  0  0  0  0  0  0
    2.4635   -1.8882   -1.9911 H   0  0  0  0  0  0  0  0  0  0  0  0
    0.9207   -1.0362   -2.0254 H   0  0  0  0  0  0  0  0  0  0  0  0
    3.7619   -2.0778    0.0831 H   0  0  0  0  0  0  0  0  0  0  0  0
    1.7664   -1.0951    3.7625 H   0  0  0  0  0  0  0  0  0  0  0  0
   -0.0011    0.0004   -0.0008 H   0  0  0  0  0  0  0  0  0  0  0  0
   -0.1882    1.1859    2.8884 H   0  0  0  0  0  0  0  0  0  0  0  0
   -1.3104    0.0629    2.0816 H   0  0  0  0  0  0  0  0  0  0  0  0
   -0.5858   -0.3863    3.6245 H   0  0  0  0  0  0  0  0  0  0  0  0
    4.7659   -1.5506    2.9988 H   0  0  0  0  0  0  0  0  0  0  0  0
    3.6220   -2.7105    3.7181 H   0  0  0  0  0  0  0  0  0  0  0  0
    4.4400   -3.1135    2.2095 H   0  0  0  0  0  0  0  0  0  0  0  0
  1  2  1  0
  2  7  2  0
  2  3  1  0
  3  4  2  0
  4  5  1  0
  5  6  2  0
  6  7  1  0
  6  8  1  0
  4  9  1  0
  1 10  1  0
  1 11  1  0
  1 12  1  0
  3 13  1  0
  5 14  1  0
  7 15  1  0
  8 16  1  0
  8 17  1  0
  8 18  1  0
  9 19  1  0
  9 20  1  0
  9 21  1  0
M  END
>  <_TriposChargeType>  (87) 
USER_CHARGES

>  <solvdG>  (87) 
-0.9

>  <fdG>  (87) 
-0.55

>  <fname>  (87) 
mobley_1987439

>  <cname>  (87) 
 mesitylene

>  <dataset>  (87) 
FreeSolv

$$$$
biphenyl
     RDKit          3D

 22 23  0  0  0  0  0  0  0  0999 V2000
    1.8851   -1.0363   -0.1124 C   0  0  0  0  0  0  0  0  0  0  0  0
    2.9210   -1.6309    0.6081 C   0  0  0  0  0  0  0  0  0  0  0  0
    2.8783   -1.6520    2.0022 C   0  0  0  0  0  0  0  0  0  0  0  0
    1.7997   -1.0786    2.6757 C   0  0  0  0  0  0  0  0  0  0  0  0
    0.7638   -0.4841    1.9551 C   0  0  0  0  0  0  0  0  0  0  0  0
    0.8066   -0.4630    0.5610 C   0  0  0  0  0  0  0  0  0  0  0  0
    1.7549   -1.1005    4.1216 C   0  0  0  0  0  0  0  0  0  0  0  0
    2.9406   -1.0882    4.8563 C   0  0  0  0  0  0  0  0  0  0  0  0
    2.8976   -1.1093    6.2503 C   0  0  0  0  0  0  0  0  0  0  0  0
    1.6689   -1.1428    6.9097 C   0  0  0  0  0  0  0  0  0  0  0  0
    0.4832   -1.1553    6.1751 C   0  0  0  0  0  0  0  0  0  0  0  0
    0.5262   -1.1342    4.7810 C   0  0  0  0  0  0  0  0  0  0  0  0
    1.9174   -1.0212   -1.1979 H   0  0  0  0  0  0  0  0  0  0  0  0
    3.7605   -2.0787    0.0844 H   0  0  0  0  0  0  0  0  0  0  0  0
    3.6927   -2.1196    2.5504 H   0  0  0  0  0  0  0  0  0  0  0  0
   -0.0840   -0.0332    2.4655 H   0  0  0  0  0  0  0  0  0  0  0  0
   -0.0009   -0.0015    0.0001 H   0  0  0  0  0  0  0  0  0  0  0  0
    3.9061   -1.0610    4.3567 H   0  0  0  0  0  0  0  0  0  0  0  0
    3.8210   -1.0986    6.8219 H   0  0  0  0  0  0  0  0  0  0  0  0
    1.6358   -1.1592    7.9952 H   0  0  0  0  0  0  0  0  0  0  0  0
   -0.4732   -1.1825    6.6889 H   0  0  0  0  0  0  0  0  0  0  0  0
   -0.4066   -1.1457    4.2224 H   0  0  0  0  0  0  0  0  0  0  0  0
  1  6  2  0
  1  2  1  0
  2  3  2  0
  3  4  1  0
  4  5  2  0
  5  6  1  0
  4  7  1  0
  7 12  1  0
  7  8  2  0
  8  9  1  0
  9 10  2  0
 10 11  1  0
 11 12  2  0
  1 13  1  0
  2 14  1  0
  3 15  1  0
  5 16  1  0
  6 17  1  0
  8 18  1  0
  9 19  1  0
 10 20  1  0
 11 21  1  0
 12 22  1  0
M  END
>  <_TriposChargeType>  (88) 
USER_CHARGES

>  <solvdG>  (88) 
-2.7

>  <fdG>  (88) 
-3.14

>  <fname>  (88) 
mobley_2005792

>  <cname>  (88) 
 biphenyl

>  <dataset>  (88) 
FreeSolv

$$$$
ethane
     RDKit          3D

  8  7  0  0  0  0  0  0  0  0999 V2000
    0.8151   -0.5383    0.4928 C   0  0  0  0  0  0  0  0  0  0  0  0
    2.1548   -0.0516   -0.0117 C   0  0  0  0  0  0  0  0  0  0  0  0
    0.0001    0.0007    0.0006 H   0  0  0  0  0  0  0  0  0  0  0  0
    0.6931   -1.6067    0.2906 H   0  0  0  0  0  0  0  0  0  0  0  0
    0.7303   -0.3800    1.5721 H   0  0  0  0  0  0  0  0  0  0  0  0
    2.9698   -0.5906    0.4805 H   0  0  0  0  0  0  0  0  0  0  0  0
    2.2767    1.0166    0.1908 H   0  0  0  0  0  0  0  0  0  0  0  0
    2.2396   -0.2097   -1.0909 H   0  0  0  0  0  0  0  0  0  0  0  0
  1  2  1  0
  1  3  1  0
  1  4  1  0
  1  5  1  0
  2  6  1  0
  2  7  1  0
  2  8  1  0
M  END
>  <_TriposChargeType>  (89) 
USER_CHARGES

>  <solvdG>  (89) 
1.83

>  <fdG>  (89) 
2.46

>  <fname>  (89) 
mobley_2008055

>  <cname>  (89) 
 ethane

>  <dataset>  (89) 
FreeSolv

$$$$
(2R)-2-chloro-2-(difluoromethoxy)-1,1,1-trifluoro-ethane
     RDKit          3D

 12 11  0  0  0  0  0  0  0  0999 V2000
   -0.5010   -0.1492    0.2830 C   0  0  2  0  0  0  0  0  0  0  0  0
   -0.6962    0.8533    0.6796 H   0  0  0  0  0  0  0  0  0  0  0  0
   -0.0727   -1.0685    1.4067 C   0  0  0  0  0  0  0  0  0  0  0  0
   -1.0305   -1.1634    2.3551 F   0  0  0  0  0  0  0  0  0  0  0  0
    1.0424   -0.5957    2.0083 F   0  0  0  0  0  0  0  0  0  0  0  0
    0.1987   -2.3142    0.9627 F   0  0  0  0  0  0  0  0  0  0  0  0
   -1.6690   -0.7019   -0.3208 O   0  0  0  0  0  0  0  0  0  0  0  0
   -2.5237    0.2838   -0.8744 C   0  0  0  0  0  0  0  0  0  0  0  0
   -2.9232    1.0954    0.1356 F   0  0  0  0  0  0  0  0  0  0  0  0
   -3.6355   -0.3237   -1.3552 F   0  0  0  0  0  0  0  0  0  0  0  0
    0.8035   -0.0341   -0.9265 Cl  0  0  0  0  0  0  0  0  0  0  0  0
   -2.0461    0.8840   -1.6550 H   0  0  0  0  0  0  0  0  0  0  0  0
  1  2  1  1
  1  3  1  0
  3  4  1  0
  3  5  1  0
  3  6  1  0
  1  7  1  0
  7  8  1  0
  8  9  1  0
  8 10  1  0
  1 11  1  0
  8 12  1  0
M  END
>  <_TriposChargeType>  (90) 
USER_CHARGES

>  <solvdG>  (90) 
0.1

>  <fdG>  (90) 
-1.16

>  <fname>  (90) 
mobley_2023925

>  <cname>  (90) 
 2-chloro-2-(difluoromethoxy)-1,1,1-trifluoro-ethane

>  <dataset>  (90) 
FreeSolv

$$$$
1-cyclohexylethanone
     RDKit          3D

 23 23  0  0  0  0  0  0  0  0999 V2000
    0.0512    0.6947   -1.3301 C   0  0  0  0  0  0  0  0  0  0  0  0
    0.7296   -0.4754   -0.6707 C   0  0  0  0  0  0  0  0  0  0  0  0
    1.4868   -0.3263    0.2872 O   0  0  0  0  0  0  0  0  0  0  0  0
    0.4389   -1.8334   -1.2408 C   0  0  0  0  0  0  0  0  0  0  0  0
    1.0887   -2.9170   -0.3777 C   0  0  0  0  0  0  0  0  0  0  0  0
    2.5978   -3.0262   -0.5898 C   0  0  0  0  0  0  0  0  0  0  0  0
    2.9486   -3.1872   -2.0644 C   0  0  0  0  0  0  0  0  0  0  0  0
    2.3702   -2.0527   -2.9021 C   0  0  0  0  0  0  0  0  0  0  0  0
    0.8603   -1.9147   -2.7094 C   0  0  0  0  0  0  0  0  0  0  0  0
    0.6827    1.0778   -2.1356 H   0  0  0  0  0  0  0  0  0  0  0  0
   -0.9174    0.3807   -1.7266 H   0  0  0  0  0  0  0  0  0  0  0  0
   -0.1078    1.4901   -0.5968 H   0  0  0  0  0  0  0  0  0  0  0  0
   -0.6504   -1.9512   -1.1798 H   0  0  0  0  0  0  0  0  0  0  0  0
    0.8872   -2.7313    0.6843 H   0  0  0  0  0  0  0  0  0  0  0  0
    0.6300   -3.8836   -0.6225 H   0  0  0  0  0  0  0  0  0  0  0  0
    3.0980   -2.1374   -0.1875 H   0  0  0  0  0  0  0  0  0  0  0  0
    2.9829   -3.8843   -0.0269 H   0  0  0  0  0  0  0  0  0  0  0  0
    4.0376   -3.2147   -2.1833 H   0  0  0  0  0  0  0  0  0  0  0  0
    2.5626   -4.1465   -2.4306 H   0  0  0  0  0  0  0  0  0  0  0  0
    2.8627   -1.1113   -2.6301 H   0  0  0  0  0  0  0  0  0  0  0  0
    2.5895   -2.2283   -3.9615 H   0  0  0  0  0  0  0  0  0  0  0  0
    0.5073   -1.0336   -3.2590 H   0  0  0  0  0  0  0  0  0  0  0  0
    0.3717   -2.7858   -3.1648 H   0  0  0  0  0  0  0  0  0  0  0  0
  1  2  1  0
  2  3  2  0
  2  4  1  0
  4  9  1  0
  4  5  1  0
  5  6  1  0
  6  7  1  0
  7  8  1  0
  8  9  1  0
  1 10  1  0
  1 11  1  0
  1 12  1  0
  4 13  1  0
  5 14  1  0
  5 15  1  0
  6 16  1  0
  6 17  1  0
  7 18  1  0
  7 19  1  0
  8 20  1  0
  8 21  1  0
  9 22  1  0
  9 23  1  0
M  END
>  <_TriposChargeType>  (91) 
USER_CHARGES

>  <solvdG>  (91) 
-3.9

>  <fdG>  (91) 
-4.0

>  <fname>  (91) 
mobley_2043882

>  <cname>  (91) 
 1-cyclohexylethanone

>  <dataset>  (91) 
FreeSolv

$$$$
methylsulfanylethane
     RDKit          3D

 12 11  0  0  0  0  0  0  0  0999 V2000
    0.4412   -0.3496    0.9395 C   0  0  0  0  0  0  0  0  0  0  0  0
    1.8518   -0.8681    0.7340 C   0  0  0  0  0  0  0  0  0  0  0  0
    2.9258    0.4446    0.0921 S   0  0  0  0  0  0  0  0  0  0  0  0
    4.4613   -0.5024   -0.0229 C   0  0  0  0  0  0  0  0  0  0  0  0
   -0.2216   -1.1305    1.3274 H   0  0  0  0  0  0  0  0  0  0  0  0
    0.4213    0.4995    1.6311 H   0  0  0  0  0  0  0  0  0  0  0  0
    0.0269   -0.0085   -0.0151 H   0  0  0  0  0  0  0  0  0  0  0  0
    1.8501   -1.7008    0.0240 H   0  0  0  0  0  0  0  0  0  0  0  0
    2.2645   -1.2294    1.6807 H   0  0  0  0  0  0  0  0  0  0  0  0
    5.2601    0.1363   -0.4043 H   0  0  0  0  0  0  0  0  0  0  0  0
    4.3223   -1.3469   -0.7004 H   0  0  0  0  0  0  0  0  0  0  0  0
    4.7384   -0.8747    0.9650 H   0  0  0  0  0  0  0  0  0  0  0  0
  1  2  1  0
  2  3  1  0
  3  4  1  0
  1  5  1  0
  1  6  1  0
  1  7  1  0
  2  8  1  0
  2  9  1  0
  4 10  1  0
  4 11  1  0
  4 12  1  0
M  END
>  <_TriposChargeType>  (92) 
USER_CHARGES

>  <solvdG>  (92) 
-1.5

>  <fdG>  (92) 
0.39

>  <fname>  (92) 
mobley_2049967

>  <cname>  (92) 
 methylsulfanylethane

>  <dataset>  (92) 
FreeSolv

$$$$
phenol
     RDKit          3D

 13 13  0  0  0  0  0  0  0  0999 V2000
    1.8851   -1.0363   -0.1124 C   0  0  0  0  0  0  0  0  0  0  0  0
    2.9210   -1.6309    0.6081 C   0  0  0  0  0  0  0  0  0  0  0  0
    2.8783   -1.6520    2.0022 C   0  0  0  0  0  0  0  0  0  0  0  0
    1.7997   -1.0786    2.6757 C   0  0  0  0  0  0  0  0  0  0  0  0
    0.7638   -0.4841    1.9551 C   0  0  0  0  0  0  0  0  0  0  0  0
    0.8066   -0.4630    0.5610 C   0  0  0  0  0  0  0  0  0  0  0  0
    1.7593   -1.0981    4.0359 O   0  0  0  0  0  0  0  0  0  0  0  0
    1.9184   -1.0206   -1.1979 H   0  0  0  0  0  0  0  0  0  0  0  0
    3.7605   -2.0773    0.0830 H   0  0  0  0  0  0  0  0  0  0  0  0
    3.6889   -2.1149    2.5584 H   0  0  0  0  0  0  0  0  0  0  0  0
   -0.0785   -0.0345    2.4737 H   0  0  0  0  0  0  0  0  0  0  0  0
   -0.0001    0.0001    0.0001 H   0  0  0  0  0  0  0  0  0  0  0  0
    0.9523   -0.6634    4.3548 H   0  0  0  0  0  0  0  0  0  0  0  0
  1  6  2  0
  1  2  1  0
  2  3  2  0
  3  4  1  0
  4  5  2  0
  5  6  1  0
  4  7  1  0
  1  8  1  0
  2  9  1  0
  3 10  1  0
  5 11  1  0
  6 12  1  0
  7 13  1  0
M  END
>  <_TriposChargeType>  (93) 
USER_CHARGES

>  <solvdG>  (93) 
-6.6

>  <fdG>  (93) 
-5.71

>  <fname>  (93) 
mobley_20524

>  <cname>  (93) 
 phenol

>  <dataset>  (93) 
FreeSolv

$$$$
propane
     RDKit          3D

 11 10  0  0  0  0  0  0  0  0999 V2000
   -0.5532   -0.2786    0.9029 C   0  0  0  0  0  0  0  0  0  0  0  0
    0.3849   -0.4425    2.0870 C   0  0  0  0  0  0  0  0  0  0  0  0
    1.1307    0.8191    2.3889 C   0  0  0  0  0  0  0  0  0  0  0  0
   -1.0901   -1.2100    0.6961 H   0  0  0  0  0  0  0  0  0  0  0  0
   -1.2975    0.5005    1.0972 H   0  0  0  0  0  0  0  0  0  0  0  0
    0.0085   -0.0003    0.0060 H   0  0  0  0  0  0  0  0  0  0  0  0
   -0.1907   -0.7423    2.9698 H   0  0  0  0  0  0  0  0  0  0  0  0
    1.1014   -1.2443    1.8766 H   0  0  0  0  0  0  0  0  0  0  0  0
    1.7955    0.6630    3.2465 H   0  0  0  0  0  0  0  0  0  0  0  0
    0.4379    1.6294    2.6396 H   0  0  0  0  0  0  0  0  0  0  0  0
    1.7445    1.1213    1.5338 H   0  0  0  0  0  0  0  0  0  0  0  0
  1  2  1  0
  2  3  1  0
  1  4  1  0
  1  5  1  0
  1  6  1  0
  2  7  1  0
  2  8  1  0
  3  9  1  0
  3 10  1  0
  3 11  1  0
M  END
>  <_TriposChargeType>  (94) 
USER_CHARGES

>  <solvdG>  (94) 
2.0

>  <fdG>  (94) 
2.5

>  <fname>  (94) 
mobley_2068538

>  <cname>  (94) 
 propane

>  <dataset>  (94) 
FreeSolv

$$$$
(2S)-2-(4-isobutylphenyl)propanoic acid
     RDKit          3D

 33 33  0  0  0  0  0  0  0  0999 V2000
   -3.2532    2.2962   -4.3066 C   0  0  0  0  0  0  0  0  0  0  0  0
   -2.9842    3.5255   -3.4349 C   0  0  1  0  0  0  0  0  0  0  0  0
   -3.9485    4.0156   -3.2429 H   0  0  0  0  0  0  0  0  0  0  0  0
   -2.3928    3.1749   -2.1115 C   0  0  0  0  0  0  0  0  0  0  0  0
   -1.1710    2.5049   -2.0486 C   0  0  0  0  0  0  0  0  0  0  0  0
   -0.6181    2.1773   -0.8106 C   0  0  0  0  0  0  0  0  0  0  0  0
   -1.2871    2.5197    0.3646 C   0  0  0  0  0  0  0  0  0  0  0  0
   -2.5090    3.1897    0.3016 C   0  0  0  0  0  0  0  0  0  0  0  0
   -3.0618    3.5172   -0.9364 C   0  0  0  0  0  0  0  0  0  0  0  0
   -0.6900    2.1628    1.7040 C   0  0  0  0  0  0  0  0  0  0  0  0
    0.2330    3.2519    2.2848 C   0  0  0  0  0  0  0  0  0  0  0  0
   -0.5047    4.5764    2.4967 C   0  0  0  0  0  0  0  0  0  0  0  0
    0.8260    2.7743    3.6128 C   0  0  0  0  0  0  0  0  0  0  0  0
   -2.1174    4.5239   -4.1885 C   0  0  0  0  0  0  0  0  0  0  0  0
   -1.2848    4.2380   -5.0393 O   0  0  0  0  0  0  0  0  0  0  0  0
   -2.3650    5.8057   -3.8099 O   0  0  0  0  0  0  0  0  0  0  0  0
   -2.3323    1.7513   -4.5420 H   0  0  0  0  0  0  0  0  0  0  0  0
   -3.9436    1.6039   -3.8124 H   0  0  0  0  0  0  0  0  0  0  0  0
   -3.7011    2.5869   -5.2633 H   0  0  0  0  0  0  0  0  0  0  0  0
   -0.6431    2.2342   -2.9591 H   0  0  0  0  0  0  0  0  0  0  0  0
    0.3337    1.6543   -0.7709 H   0  0  0  0  0  0  0  0  0  0  0  0
   -3.0375    3.4594    1.2122 H   0  0  0  0  0  0  0  0  0  0  0  0
   -4.0143    4.0391   -0.9756 H   0  0  0  0  0  0  0  0  0  0  0  0
   -1.4900    1.9307    2.4194 H   0  0  0  0  0  0  0  0  0  0  0  0
   -0.1276    1.2277    1.5790 H   0  0  0  0  0  0  0  0  0  0  0  0
    1.0660    3.4333    1.5937 H   0  0  0  0  0  0  0  0  0  0  0  0
    0.1621    5.3411    2.9095 H   0  0  0  0  0  0  0  0  0  0  0  0
   -1.3503    4.4561    3.1810 H   0  0  0  0  0  0  0  0  0  0  0  0
   -0.9039    4.9534    1.5489 H   0  0  0  0  0  0  0  0  0  0  0  0
    1.4857    3.5365    4.0410 H   0  0  0  0  0  0  0  0  0  0  0  0
    0.0399    2.5568    4.3440 H   0  0  0  0  0  0  0  0  0  0  0  0
    1.4182    1.8643    3.4697 H   0  0  0  0  0  0  0  0  0  0  0  0
   -3.0535    5.9145   -3.1199 H   0  0  0  0  0  0  0  0  0  0  0  0
  1  2  1  0
  2  3  1  1
  2  4  1  0
  4  9  2  0
  4  5  1  0
  5  6  2  0
  6  7  1  0
  7  8  2  0
  8  9  1  0
  7 10  1  0
 10 11  1  0
 11 12  1  0
 11 13  1  0
  2 14  1  0
 14 15  2  0
 14 16  1  0
  1 17  1  0
  1 18  1  0
  1 19  1  0
  5 20  1  0
  6 21  1  0
  8 22  1  0
  9 23  1  0
 10 24  1  0
 10 25  1  0
 11 26  1  0
 12 27  1  0
 12 28  1  0
 12 29  1  0
 13 30  1  0
 13 31  1  0
 13 32  1  0
 16 33  1  0
M  END
>  <_TriposChargeType>  (95) 
USER_CHARGES

>  <solvdG>  (95) 
-7.0

>  <fdG>  (95) 
-10.86

>  <fname>  (95) 
mobley_2078467

>  <cname>  (95) 
 ibuprofen

>  <dataset>  (95) 
FreeSolv

$$$$
(2S)-2-(3-benzoylphenyl)propanoic acid
     RDKit          3D

 33 34  0  0  0  0  0  0  0  0999 V2000
    1.9222    0.4070   -2.1733 C   0  0  0  0  0  0  0  0  0  0  0  0
    1.9315   -1.0136   -1.6031 C   0  0  1  0  0  0  0  0  0  0  0  0
    2.8735   -1.4894   -1.9084 H   0  0  0  0  0  0  0  0  0  0  0  0
    1.8851   -1.0363   -0.1124 C   0  0  0  0  0  0  0  0  0  0  0  0
    2.9210   -1.6309    0.6081 C   0  0  0  0  0  0  0  0  0  0  0  0
    2.8783   -1.6520    2.0022 C   0  0  0  0  0  0  0  0  0  0  0  0
    1.7997   -1.0786    2.6757 C   0  0  0  0  0  0  0  0  0  0  0  0
    0.7638   -0.4841    1.9551 C   0  0  0  0  0  0  0  0  0  0  0  0
    0.8066   -0.4630    0.5610 C   0  0  0  0  0  0  0  0  0  0  0  0
   -0.3613    0.1123    2.6573 C   0  0  0  0  0  0  0  0  0  0  0  0
   -0.3285    1.3064    2.9903 O   0  0  0  0  0  0  0  0  0  0  0  0
   -1.5891   -0.6637    3.0078 C   0  0  0  0  0  0  0  0  0  0  0  0
   -1.6860   -2.0107    2.6587 C   0  0  0  0  0  0  0  0  0  0  0  0
   -2.8327   -2.7350    2.9847 C   0  0  0  0  0  0  0  0  0  0  0  0
   -3.8825   -2.1122    3.6598 C   0  0  0  0  0  0  0  0  0  0  0  0
   -3.7856   -0.7651    4.0088 C   0  0  0  0  0  0  0  0  0  0  0  0
   -2.6389   -0.0409    3.6828 C   0  0  0  0  0  0  0  0  0  0  0  0
    0.8004   -1.8306   -2.2108 C   0  0  0  0  0  0  0  0  0  0  0  0
   -0.1119   -2.3530   -1.5834 O   0  0  0  0  0  0  0  0  0  0  0  0
    0.9078   -1.9285   -3.5623 O   0  0  0  0  0  0  0  0  0  0  0  0
    1.0073    0.9487   -1.9090 H   0  0  0  0  0  0  0  0  0  0  0  0
    2.7791    0.9849   -1.8101 H   0  0  0  0  0  0  0  0  0  0  0  0
    1.9728    0.3884   -3.2676 H   0  0  0  0  0  0  0  0  0  0  0  0
    3.7649   -2.0805    0.0915 H   0  0  0  0  0  0  0  0  0  0  0  0
    3.6846   -2.1151    2.5634 H   0  0  0  0  0  0  0  0  0  0  0  0
    1.7765   -1.1017    3.7622 H   0  0  0  0  0  0  0  0  0  0  0  0
   -0.0005   -0.0007   -0.0029 H   0  0  0  0  0  0  0  0  0  0  0  0
   -0.8742   -2.5059    2.1321 H   0  0  0  0  0  0  0  0  0  0  0  0
   -2.9080   -3.7839    2.7134 H   0  0  0  0  0  0  0  0  0  0  0  0
   -4.7755   -2.6756    3.9139 H   0  0  0  0  0  0  0  0  0  0  0  0
   -4.6036   -0.2806    4.5339 H   0  0  0  0  0  0  0  0  0  0  0  0
   -2.5742    1.0081    3.9604 H   0  0  0  0  0  0  0  0  0  0  0  0
    1.6796   -1.4695   -3.9568 H   0  0  0  0  0  0  0  0  0  0  0  0
  1  2  1  0
  2  3  1  1
  2  4  1  0
  4  9  2  0
  4  5  1  0
  5  6  2  0
  6  7  1  0
  7  8  2  0
  8  9  1  0
  8 10  1  0
 10 11  2  0
 10 12  1  0
 12 17  1  0
 12 13  2  0
 13 14  1  0
 14 15  2  0
 15 16  1  0
 16 17  2  0
  2 18  1  0
 18 19  2  0
 18 20  1  0
  1 21  1  0
  1 22  1  0
  1 23  1  0
  5 24  1  0
  6 25  1  0
  7 26  1  0
  9 27  1  0
 13 28  1  0
 14 29  1  0
 15 30  1  0
 16 31  1  0
 17 32  1  0
 20 33  1  0
M  END
>  <_TriposChargeType>  (96) 
USER_CHARGES

>  <solvdG>  (96) 
-10.78

>  <fdG>  (96) 
-17.24

>  <fname>  (96) 
mobley_2099370

>  <cname>  (96) 
 ketoprofen

>  <dataset>  (96) 
FreeSolv

$$$$
2-iodopropane
     RDKit          3D

 11 10  0  0  0  0  0  0  0  0999 V2000
   -0.2701   -0.5443   -1.1412 C   0  0  0  0  0  0  0  0  0  0  0  0
   -0.1818   -0.4030    0.3755 C   0  0  0  0  0  0  0  0  0  0  0  0
    0.2417    1.0079    0.7727 C   0  0  0  0  0  0  0  0  0  0  0  0
    1.2321   -1.8337    1.1580 I   0  0  0  0  0  0  0  0  0  0  0  0
   -0.5741   -1.5570   -1.4281 H   0  0  0  0  0  0  0  0  0  0  0  0
   -1.0109    0.1517   -1.5493 H   0  0  0  0  0  0  0  0  0  0  0  0
    0.6897   -0.3327   -1.6256 H   0  0  0  0  0  0  0  0  0  0  0  0
   -1.1655   -0.6149    0.8103 H   0  0  0  0  0  0  0  0  0  0  0  0
    0.3055    1.1107    1.8616 H   0  0  0  0  0  0  0  0  0  0  0  0
   -0.4858    1.7433    0.4128 H   0  0  0  0  0  0  0  0  0  0  0  0
    1.2191    1.2717    0.3535 H   0  0  0  0  0  0  0  0  0  0  0  0
  1  2  1  0
  2  3  1  0
  2  4  1  0
  1  5  1  0
  1  6  1  0
  1  7  1  0
  2  8  1  0
  3  9  1  0
  3 10  1  0
  3 11  1  0
M  END
>  <_TriposChargeType>  (97) 
USER_CHARGES

>  <solvdG>  (97) 
-0.46

>  <fdG>  (97) 
-0.49

>  <fname>  (97) 
mobley_210639

>  <cname>  (97) 
 2-iodopropane

>  <dataset>  (97) 
FreeSolv

$$$$
4-hydroxybenzonitrile
     RDKit          3D

 14 14  0  0  0  0  0  0  0  0999 V2000
    1.8851   -1.0363   -0.1124 C   0  0  0  0  0  0  0  0  0  0  0  0
    2.9210   -1.6309    0.6081 C   0  0  0  0  0  0  0  0  0  0  0  0
    2.8783   -1.6520    2.0022 C   0  0  0  0  0  0  0  0  0  0  0  0
    1.7997   -1.0786    2.6757 C   0  0  0  0  0  0  0  0  0  0  0  0
    0.7638   -0.4841    1.9551 C   0  0  0  0  0  0  0  0  0  0  0  0
    0.8066   -0.4630    0.5610 C   0  0  0  0  0  0  0  0  0  0  0  0
   -0.2547    0.1457   -0.1772 C   0  0  0  0  0  0  0  0  0  0  0  0
   -1.1177    0.6407   -0.7775 N   0  0  0  0  0  0  0  0  0  0  0  0
    3.8891   -2.2321    2.7051 O   0  0  0  0  0  0  0  0  0  0  0  0
    1.9324   -1.0283   -1.1988 H   0  0  0  0  0  0  0  0  0  0  0  0
    3.7582   -2.0766    0.0779 H   0  0  0  0  0  0  0  0  0  0  0  0
    1.7610   -1.0917    3.7615 H   0  0  0  0  0  0  0  0  0  0  0  0
   -0.0700   -0.0410    2.4943 H   0  0  0  0  0  0  0  0  0  0  0  0
    3.7165   -2.1675    3.6580 H   0  0  0  0  0  0  0  0  0  0  0  0
  1  6  2  0
  1  2  1  0
  2  3  2  0
  3  4  1  0
  4  5  2  0
  5  6  1  0
  6  7  1  0
  7  8  3  0
  3  9  1  0
  1 10  1  0
  2 11  1  0
  4 12  1  0
  5 13  1  0
  9 14  1  0
M  END
>  <_TriposChargeType>  (98) 
USER_CHARGES

>  <solvdG>  (98) 
-10.17

>  <fdG>  (98) 
-8.39

>  <fname>  (98) 
mobley_2123854

>  <cname>  (98) 
 4-hydroxybenzonitrile

>  <dataset>  (98) 
FreeSolv

$$$$
2-ethylphenol
     RDKit          3D

 19 19  0  0  0  0  0  0  0  0999 V2000
    2.6524    0.2177   -2.1300 C   0  0  0  0  0  0  0  0  0  0  0  0
    1.9474   -1.0231   -1.6040 C   0  0  0  0  0  0  0  0  0  0  0  0
    1.8851   -1.0363   -0.1124 C   0  0  0  0  0  0  0  0  0  0  0  0
    2.9210   -1.6309    0.6081 C   0  0  0  0  0  0  0  0  0  0  0  0
    2.8783   -1.6520    2.0022 C   0  0  0  0  0  0  0  0  0  0  0  0
    1.7997   -1.0786    2.6757 C   0  0  0  0  0  0  0  0  0  0  0  0
    0.7638   -0.4841    1.9551 C   0  0  0  0  0  0  0  0  0  0  0  0
    0.8066   -0.4630    0.5610 C   0  0  0  0  0  0  0  0  0  0  0  0
   -0.2138    0.1210   -0.1275 O   0  0  0  0  0  0  0  0  0  0  0  0
    2.6929    0.2179   -3.2245 H   0  0  0  0  0  0  0  0  0  0  0  0
    3.6791    0.2578   -1.7528 H   0  0  0  0  0  0  0  0  0  0  0  0
    2.1384    1.1313   -1.8126 H   0  0  0  0  0  0  0  0  0  0  0  0
    2.4651   -1.9222   -1.9600 H   0  0  0  0  0  0  0  0  0  0  0  0
    0.9323   -1.0753   -2.0164 H   0  0  0  0  0  0  0  0  0  0  0  0
    3.7662   -2.0795    0.0929 H   0  0  0  0  0  0  0  0  0  0  0  0
    3.6849   -2.1142    2.5640 H   0  0  0  0  0  0  0  0  0  0  0  0
    1.7669   -1.0937    3.7611 H   0  0  0  0  0  0  0  0  0  0  0  0
   -0.0736   -0.0391    2.4855 H   0  0  0  0  0  0  0  0  0  0  0  0
   -0.8784    0.4674    0.4884 H   0  0  0  0  0  0  0  0  0  0  0  0
  1  2  1  0
  2  3  1  0
  3  8  2  0
  3  4  1  0
  4  5  2  0
  5  6  1  0
  6  7  2  0
  7  8  1  0
  8  9  1  0
  1 10  1  0
  1 11  1  0
  1 12  1  0
  2 13  1  0
  2 14  1  0
  4 15  1  0
  5 16  1  0
  6 17  1  0
  7 18  1  0
  9 19  1  0
M  END
>  <_TriposChargeType>  (99) 
USER_CHARGES

>  <solvdG>  (99) 
-5.66

>  <fdG>  (99) 
-4.77

>  <fname>  (99) 
mobley_2126135

>  <cname>  (99) 
 2-ethylphenol

>  <dataset>  (99) 
FreeSolv

$$$$
3-methylbut-1-ene
     RDKit          3D

 15 14  0  0  0  0  0  0  0  0999 V2000
    2.1505   -3.7354    0.9777 C   0  0  0  0  0  0  0  0  0  0  0  0
    2.3688   -2.2470    1.2482 C   0  0  0  0  0  0  0  0  0  0  0  0
    2.8716   -2.0287    2.6750 C   0  0  0  0  0  0  0  0  0  0  0  0
    1.0894   -1.4836    1.0237 C   0  0  0  0  0  0  0  0  0  0  0  0
    0.9540   -0.5005    0.1261 C   0  0  0  0  0  0  0  0  0  0  0  0
    1.7901   -3.8938   -0.0444 H   0  0  0  0  0  0  0  0  0  0  0  0
    1.4044   -4.1535    1.6628 H   0  0  0  0  0  0  0  0  0  0  0  0
    3.0775   -4.3077    1.0996 H   0  0  0  0  0  0  0  0  0  0  0  0
    3.1429   -1.8877    0.5580 H   0  0  0  0  0  0  0  0  0  0  0  0
    3.0340   -0.9659    2.8875 H   0  0  0  0  0  0  0  0  0  0  0  0
    2.1469   -2.4094    3.4027 H   0  0  0  0  0  0  0  0  0  0  0  0
    3.8187   -2.5540    2.8420 H   0  0  0  0  0  0  0  0  0  0  0  0
    0.2279   -1.7527    1.6305 H   0  0  0  0  0  0  0  0  0  0  0  0
    0.0140    0.0244   -0.0039 H   0  0  0  0  0  0  0  0  0  0  0  0
    1.7918   -0.2063   -0.4964 H   0  0  0  0  0  0  0  0  0  0  0  0
  1  2  1  0
  2  3  1  0
  2  4  1  0
  4  5  2  3
  1  6  1  0
  1  7  1  0
  1  8  1  0
  2  9  1  0
  3 10  1  0
  3 11  1  0
  3 12  1  0
  4 13  1  0
  5 14  1  0
  5 15  1  0
M  END
>  <_TriposChargeType>  (100) 
USER_CHARGES

>  <solvdG>  (100) 
1.83

>  <fdG>  (100) 
2.45

>  <fname>  (100) 
mobley_2143011

>  <cname>  (100) 
 3-methylbut-1-ene

>  <dataset>  (100) 
FreeSolv

$$$$
formaldehyde
     RDKit          3D

  4  3  0  0  0  0  0  0  0  0999 V2000
    0.0059    0.0101   -0.0041 C   0  0  0  0  0  0  0  0  0  0  0  0
   -0.5765   -0.9882    0.4011 O   0  0  0  0  0  0  0  0  0  0  0  0
    0.0774    0.9322    0.5945 H   0  0  0  0  0  0  0  0  0  0  0  0
    0.4933    0.0460   -0.9915 H   0  0  0  0  0  0  0  0  0  0  0  0
  1  2  2  0
  1  3  1  0
  1  4  1  0
M  END
>  <_TriposChargeType>  (101) 
USER_CHARGES

>  <solvdG>  (101) 
-2.75

>  <fdG>  (101) 
-3.15

>  <fname>  (101) 
mobley_2146331

>  <cname>  (101) 
 formaldehyde

>  <dataset>  (101) 
FreeSolv

$$$$
1-chloropentane
     RDKit          3D

 17 16  0  0  0  0  0  0  0  0999 V2000
   -0.2355   -0.7097   -0.9418 C   0  0  0  0  0  0  0  0  0  0  0  0
    0.9417   -0.5154   -1.8855 C   0  0  0  0  0  0  0  0  0  0  0  0
    0.9814    0.9086   -2.4409 C   0  0  0  0  0  0  0  0  0  0  0  0
    2.1517    1.1572   -3.3996 C   0  0  0  0  0  0  0  0  0  0  0  0
    2.2425    2.5629   -3.9860 C   0  0  0  0  0  0  0  0  0  0  0  0
    0.7946    2.9935   -4.9234 Cl  0  0  0  0  0  0  0  0  0  0  0  0
   -0.2579   -1.7309   -0.5481 H   0  0  0  0  0  0  0  0  0  0  0  0
   -1.1844   -0.5169   -1.4525 H   0  0  0  0  0  0  0  0  0  0  0  0
   -0.1598   -0.0204   -0.0950 H   0  0  0  0  0  0  0  0  0  0  0  0
    1.8722   -0.7328   -1.3487 H   0  0  0  0  0  0  0  0  0  0  0  0
    0.8576   -1.2404   -2.7020 H   0  0  0  0  0  0  0  0  0  0  0  0
    1.0738    1.6151   -1.6062 H   0  0  0  0  0  0  0  0  0  0  0  0
    0.0305    1.1405   -2.9343 H   0  0  0  0  0  0  0  0  0  0  0  0
    2.0842    0.4419   -4.2288 H   0  0  0  0  0  0  0  0  0  0  0  0
    3.0864    0.9269   -2.8727 H   0  0  0  0  0  0  0  0  0  0  0  0
    2.3332    3.2960   -3.1785 H   0  0  0  0  0  0  0  0  0  0  0  0
    3.1141    2.6764   -4.6363 H   0  0  0  0  0  0  0  0  0  0  0  0
  1  2  1  0
  2  3  1  0
  3  4  1  0
  4  5  1  0
  5  6  1  0
  1  7  1  0
  1  8  1  0
  1  9  1  0
  2 10  1  0
  2 11  1  0
  3 12  1  0
  3 13  1  0
  4 14  1  0
  4 15  1  0
  5 16  1  0
  5 17  1  0
M  END
>  <_TriposChargeType>  (102) 
USER_CHARGES

>  <solvdG>  (102) 
-0.1

>  <fdG>  (102) 
1.08

>  <fname>  (102) 
mobley_2178600

>  <cname>  (102) 
 1-chloro-pentane

>  <dataset>  (102) 
FreeSolv

$$$$
[(1S)-1-methylpropyl]benzene
     RDKit          3D

 24 24  0  0  0  0  0  0  0  0999 V2000
    0.3475    0.8548    0.4435 C   0  0  0  0  0  0  0  0  0  0  0  0
    0.3956    0.8503    1.9666 C   0  0  0  0  0  0  0  0  0  0  0  0
   -0.9885    0.6449    2.6154 C   0  0  2  0  0  0  0  0  0  0  0  0
   -1.6319    1.4717    2.2846 H   0  0  0  0  0  0  0  0  0  0  0  0
   -0.8826    0.7539    4.1414 C   0  0  0  0  0  0  0  0  0  0  0  0
   -1.6445   -0.6670    2.2202 C   0  0  0  0  0  0  0  0  0  0  0  0
   -3.0350   -0.7618    2.1628 C   0  0  0  0  0  0  0  0  0  0  0  0
   -3.6376   -1.9663    1.8002 C   0  0  0  0  0  0  0  0  0  0  0  0
   -2.8497   -3.0762    1.4950 C   0  0  0  0  0  0  0  0  0  0  0  0
   -1.4592   -2.9814    1.5524 C   0  0  0  0  0  0  0  0  0  0  0  0
   -0.8566   -1.7768    1.9151 C   0  0  0  0  0  0  0  0  0  0  0  0
    1.3532    1.0036    0.0372 H   0  0  0  0  0  0  0  0  0  0  0  0
   -0.0331   -0.0924    0.0497 H   0  0  0  0  0  0  0  0  0  0  0  0
   -0.2895    1.6645    0.0736 H   0  0  0  0  0  0  0  0  0  0  0  0
    1.1040    0.0827    2.3002 H   0  0  0  0  0  0  0  0  0  0  0  0
    0.8042    1.8143    2.2954 H   0  0  0  0  0  0  0  0  0  0  0  0
   -1.8527    0.6119    4.6300 H   0  0  0  0  0  0  0  0  0  0  0  0
   -0.1977   -0.0048    4.5353 H   0  0  0  0  0  0  0  0  0  0  0  0
   -0.4987    1.7364    4.4390 H   0  0  0  0  0  0  0  0  0  0  0  0
   -3.6565    0.0978    2.3994 H   0  0  0  0  0  0  0  0  0  0  0  0
   -4.7202   -2.0400    1.7553 H   0  0  0  0  0  0  0  0  0  0  0  0
   -3.3186   -4.0142    1.2125 H   0  0  0  0  0  0  0  0  0  0  0  0
   -0.8458   -3.8457    1.3154 H   0  0  0  0  0  0  0  0  0  0  0  0
    0.2275   -1.7127    1.9567 H   0  0  0  0  0  0  0  0  0  0  0  0
  1  2  1  0
  2  3  1  0
  3  4  1  6
  3  5  1  0
  3  6  1  0
  6 11  2  0
  6  7  1  0
  7  8  2  0
  8  9  1  0
  9 10  2  0
 10 11  1  0
  1 12  1  0
  1 13  1  0
  1 14  1  0
  2 15  1  0
  2 16  1  0
  5 17  1  0
  5 18  1  0
  5 19  1  0
  7 20  1  0
  8 21  1  0
  9 22  1  0
 10 23  1  0
 11 24  1  0
M  END
>  <_TriposChargeType>  (103) 
USER_CHARGES

>  <solvdG>  (103) 
-0.45

>  <fdG>  (103) 
-0.22

>  <fname>  (103) 
mobley_2183616

>  <cname>  (103) 
 sec-butylbenzene

>  <dataset>  (103) 
FreeSolv

$$$$
decane
     RDKit          3D

 32 31  0  0  0  0  0  0  0  0999 V2000
    0.4673   -0.7513    0.2714 C   0  0  0  0  0  0  0  0  0  0  0  0
   -0.2983   -2.0318    0.5645 C   0  0  0  0  0  0  0  0  0  0  0  0
   -1.2682   -2.3756   -0.5658 C   0  0  0  0  0  0  0  0  0  0  0  0
   -2.0367   -3.6649   -0.2669 C   0  0  0  0  0  0  0  0  0  0  0  0
   -3.0068   -4.0067   -1.4000 C   0  0  0  0  0  0  0  0  0  0  0  0
   -3.8035   -5.2915   -1.1510 C   0  0  0  0  0  0  0  0  0  0  0  0
   -4.7733   -5.6313   -2.2858 C   0  0  0  0  0  0  0  0  0  0  0  0
   -5.5699   -6.9161   -2.0367 C   0  0  0  0  0  0  0  0  0  0  0  0
   -6.5394   -7.2578   -3.1690 C   0  0  0  0  0  0  0  0  0  0  0  0
   -7.3052   -8.5389   -2.8754 C   0  0  0  0  0  0  0  0  0  0  0  0
    1.1548   -0.5243    1.0922 H   0  0  0  0  0  0  0  0  0  0  0  0
   -0.2157    0.0965    0.1559 H   0  0  0  0  0  0  0  0  0  0  0  0
    1.0549   -0.8471   -0.6472 H   0  0  0  0  0  0  0  0  0  0  0  0
   -0.8488   -1.9142    1.5052 H   0  0  0  0  0  0  0  0  0  0  0  0
    0.4146   -2.8525    0.7060 H   0  0  0  0  0  0  0  0  0  0  0  0
   -0.7123   -2.4879   -1.5046 H   0  0  0  0  0  0  0  0  0  0  0  0
   -1.9765   -1.5500   -0.7063 H   0  0  0  0  0  0  0  0  0  0  0  0
   -2.5853   -3.5446    0.6739 H   0  0  0  0  0  0  0  0  0  0  0  0
   -1.3281   -4.4903   -0.1279 H   0  0  0  0  0  0  0  0  0  0  0  0
   -2.4405   -4.1315   -2.3314 H   0  0  0  0  0  0  0  0  0  0  0  0
   -3.6981   -3.1704   -1.5611 H   0  0  0  0  0  0  0  0  0  0  0  0
   -4.3473   -5.1974   -0.2042 H   0  0  0  0  0  0  0  0  0  0  0  0
   -3.0912   -6.1166   -1.0284 H   0  0  0  0  0  0  0  0  0  0  0  0
   -5.4724   -4.8028   -2.4468 H   0  0  0  0  0  0  0  0  0  0  0  0
   -4.2070   -5.7556   -3.2170 H   0  0  0  0  0  0  0  0  0  0  0  0
   -4.8573   -7.7413   -1.9137 H   0  0  0  0  0  0  0  0  0  0  0  0
   -6.1192   -6.8311   -1.0911 H   0  0  0  0  0  0  0  0  0  0  0  0
   -7.2594   -6.4449   -3.3123 H   0  0  0  0  0  0  0  0  0  0  0  0
   -5.9883   -7.3762   -4.1090 H   0  0  0  0  0  0  0  0  0  0  0  0
   -7.9928   -8.7659   -3.6963 H   0  0  0  0  0  0  0  0  0  0  0  0
   -6.6224   -9.3868   -2.7606 H   0  0  0  0  0  0  0  0  0  0  0  0
   -7.8925   -8.4431   -1.9566 H   0  0  0  0  0  0  0  0  0  0  0  0
  1  2  1  0
  2  3  1  0
  3  4  1  0
  4  5  1  0
  5  6  1  0
  6  7  1  0
  7  8  1  0
  8  9  1  0
  9 10  1  0
  1 11  1  0
  1 12  1  0
  1 13  1  0
  2 14  1  0
  2 15  1  0
  3 16  1  0
  3 17  1  0
  4 18  1  0
  4 19  1  0
  5 20  1  0
  5 21  1  0
  6 22  1  0
  6 23  1  0
  7 24  1  0
  7 25  1  0
  8 26  1  0
  8 27  1  0
  9 28  1  0
  9 29  1  0
 10 30  1  0
 10 31  1  0
 10 32  1  0
M  END
>  <_TriposChargeType>  (104) 
USER_CHARGES

>  <solvdG>  (104) 
3.16

>  <fdG>  (104) 
3.33

>  <fname>  (104) 
mobley_2197088

>  <cname>  (104) 
 decane

>  <dataset>  (104) 
FreeSolv

$$$$
chloroethane
     RDKit          3D

  8  7  0  0  0  0  0  0  0  0999 V2000
    0.1543   -0.7247    0.8062 C   0  0  0  0  0  0  0  0  0  0  0  0
    1.3672   -0.3680    1.6395 C   0  0  0  0  0  0  0  0  0  0  0  0
    2.8321   -0.3570    0.6342 Cl  0  0  0  0  0  0  0  0  0  0  0  0
   -0.7442   -0.7297    1.4311 H   0  0  0  0  0  0  0  0  0  0  0  0
   -0.0001    0.0001    0.0001 H   0  0  0  0  0  0  0  0  0  0  0  0
    0.2589   -1.7187    0.3589 H   0  0  0  0  0  0  0  0  0  0  0  0
    1.5144   -1.0958    2.4424 H   0  0  0  0  0  0  0  0  0  0  0  0
    1.2550    0.6252    2.0832 H   0  0  0  0  0  0  0  0  0  0  0  0
  1  2  1  0
  2  3  1  0
  1  4  1  0
  1  5  1  0
  1  6  1  0
  2  7  1  0
  2  8  1  0
M  END
>  <_TriposChargeType>  (105) 
USER_CHARGES

>  <solvdG>  (105) 
-0.63

>  <fdG>  (105) 
0.78

>  <fname>  (105) 
mobley_2198613

>  <cname>  (105) 
 chloroethane

>  <dataset>  (105) 
FreeSolv

$$$$
3-methylpentane
     RDKit          3D

 20 19  0  0  0  0  0  0  0  0999 V2000
    0.3894   -0.9603   -0.3921 C   0  0  0  0  0  0  0  0  0  0  0  0
   -0.7741   -1.8070   -0.8892 C   0  0  0  0  0  0  0  0  0  0  0  0
   -0.3423   -3.0436   -1.7051 C   0  0  0  0  0  0  0  0  0  0  0  0
    0.5423   -3.9826   -0.8792 C   0  0  0  0  0  0  0  0  0  0  0  0
   -1.6015   -3.7656   -2.2290 C   0  0  0  0  0  0  0  0  0  0  0  0
   -1.3001   -5.0094   -3.0538 C   0  0  0  0  0  0  0  0  0  0  0  0
    0.0324   -0.0978    0.1793 H   0  0  0  0  0  0  0  0  0  0  0  0
    1.0330   -1.5568    0.2629 H   0  0  0  0  0  0  0  0  0  0  0  0
    1.0082   -0.5994   -1.2183 H   0  0  0  0  0  0  0  0  0  0  0  0
   -1.4098   -1.1686   -1.5155 H   0  0  0  0  0  0  0  0  0  0  0  0
   -1.3854   -2.1162   -0.0324 H   0  0  0  0  0  0  0  0  0  0  0  0
    0.2398   -2.6982   -2.5696 H   0  0  0  0  0  0  0  0  0  0  0  0
    0.8445   -4.8573   -1.4646 H   0  0  0  0  0  0  0  0  0  0  0  0
    0.0231   -4.3360    0.0165 H   0  0  0  0  0  0  0  0  0  0  0  0
    1.4481   -3.4762   -0.5327 H   0  0  0  0  0  0  0  0  0  0  0  0
   -2.2540   -4.0396   -1.3910 H   0  0  0  0  0  0  0  0  0  0  0  0
   -2.1738   -3.0749   -2.8609 H   0  0  0  0  0  0  0  0  0  0  0  0
   -2.2345   -5.4693   -3.3917 H   0  0  0  0  0  0  0  0  0  0  0  0
   -0.7586   -5.7594   -2.4705 H   0  0  0  0  0  0  0  0  0  0  0  0
   -0.7065   -4.7602   -3.9390 H   0  0  0  0  0  0  0  0  0  0  0  0
  1  2  1  0
  2  3  1  0
  3  4  1  0
  3  5  1  0
  5  6  1  0
  1  7  1  0
  1  8  1  0
  1  9  1  0
  2 10  1  0
  2 11  1  0
  3 12  1  0
  4 13  1  0
  4 14  1  0
  4 15  1  0
  5 16  1  0
  5 17  1  0
  6 18  1  0
  6 19  1  0
  6 20  1  0
M  END
>  <_TriposChargeType>  (106) 
USER_CHARGES

>  <solvdG>  (106) 
2.51

>  <fdG>  (106) 
2.61

>  <fname>  (106) 
mobley_2213823

>  <cname>  (106) 
 3-methylpentane

>  <dataset>  (106) 
FreeSolv

$$$$
2-methylpropan-1-ol
     RDKit          3D

 15 14  0  0  0  0  0  0  0  0999 V2000
    0.9983   -0.3578   -0.2742 C   0  0  0  0  0  0  0  0  0  0  0  0
    1.8182    0.7470   -0.9439 C   0  0  0  0  0  0  0  0  0  0  0  0
    1.1578    1.1798   -2.2511 C   0  0  0  0  0  0  0  0  0  0  0  0
    1.9991    1.9493   -0.0132 C   0  0  0  0  0  0  0  0  0  0  0  0
    2.6754    1.5475    1.1709 O   0  0  0  0  0  0  0  0  0  0  0  0
    1.4668   -0.6730    0.6644 H   0  0  0  0  0  0  0  0  0  0  0  0
    0.9144   -1.2373   -0.9218 H   0  0  0  0  0  0  0  0  0  0  0  0
   -0.0135   -0.0122   -0.0385 H   0  0  0  0  0  0  0  0  0  0  0  0
    2.8075    0.3294   -1.1709 H   0  0  0  0  0  0  0  0  0  0  0  0
    1.7384    1.9708   -2.7374 H   0  0  0  0  0  0  0  0  0  0  0  0
    0.1511    1.5698   -2.0675 H   0  0  0  0  0  0  0  0  0  0  0  0
    1.0744    0.3418   -2.9516 H   0  0  0  0  0  0  0  0  0  0  0  0
    2.6000    2.7249   -0.4995 H   0  0  0  0  0  0  0  0  0  0  0  0
    1.0323    2.3812    0.2672 H   0  0  0  0  0  0  0  0  0  0  0  0
    2.7651    2.3400    1.7245 H   0  0  0  0  0  0  0  0  0  0  0  0
  1  2  1  0
  2  3  1  0
  2  4  1  0
  4  5  1  0
  1  6  1  0
  1  7  1  0
  1  8  1  0
  2  9  1  0
  3 10  1  0
  3 11  1  0
  3 12  1  0
  4 13  1  0
  4 14  1  0
  5 15  1  0
M  END
>  <_TriposChargeType>  (107) 
USER_CHARGES

>  <solvdG>  (107) 
-4.5

>  <fdG>  (107) 
-3.13

>  <fname>  (107) 
mobley_2245668

>  <cname>  (107) 
 2-methylpropan-1-ol

>  <dataset>  (107) 
FreeSolv

$$$$
1,2-dihydroacenaphthylene
     RDKit          3D

 22 24  0  0  0  0  0  0  0  0999 V2000
    5.8396   -0.4217    0.1828 C   0  0  0  0  0  0  0  0  0  0  0  0
    4.6656    0.2964   -0.1182 C   0  0  0  0  0  0  0  0  0  0  0  0
    3.4054   -0.2823    0.1219 C   0  0  0  0  0  0  0  0  0  0  0  0
    2.1388    0.2832   -0.1157 C   0  0  0  0  0  0  0  0  0  0  0  0
    0.9730   -0.4472    0.1877 C   0  0  0  0  0  0  0  0  0  0  0  0
    1.0452   -1.7419    0.7281 C   0  0  0  0  0  0  0  0  0  0  0  0
    2.2914   -2.2975    0.9613 C   0  0  0  0  0  0  0  0  0  0  0  0
    3.4127   -1.5710    0.6597 C   0  0  0  0  0  0  0  0  0  0  0  0
    4.5422   -2.2856    0.9594 C   0  0  0  0  0  0  0  0  0  0  0  0
    5.7819   -1.7171    0.7233 C   0  0  0  0  0  0  0  0  0  0  0  0
    4.2011   -3.6339    1.5210 C   0  0  0  0  0  0  0  0  0  0  0  0
    2.6477   -3.6418    1.5232 C   0  0  0  0  0  0  0  0  0  0  0  0
    6.8072    0.0357   -0.0073 H   0  0  0  0  0  0  0  0  0  0  0  0
    4.7430    1.2967   -0.5359 H   0  0  0  0  0  0  0  0  0  0  0  0
    2.0501    1.2828   -0.5328 H   0  0  0  0  0  0  0  0  0  0  0  0
    0.0003    0.0002   -0.0002 H   0  0  0  0  0  0  0  0  0  0  0  0
    0.1370   -2.2904    0.9561 H   0  0  0  0  0  0  0  0  0  0  0  0
    6.6963   -2.2563    0.9491 H   0  0  0  0  0  0  0  0  0  0  0  0
    4.5931   -4.4362    0.8876 H   0  0  0  0  0  0  0  0  0  0  0  0
    4.5916   -3.7482    2.5374 H   0  0  0  0  0  0  0  0  0  0  0  0
    2.2624   -4.4483    0.8910 H   0  0  0  0  0  0  0  0  0  0  0  0
    2.2609   -3.7597    2.5406 H   0  0  0  0  0  0  0  0  0  0  0  0
  1 10  2  0
  1  2  1  0
  2  3  2  0
  3  8  1  0
  3  4  1  0
  4  5  2  0
  5  6  1  0
  6  7  2  0
  7 12  1  0
  7  8  1  0
  8  9  2  0
  9 10  1  0
  9 11  1  0
 11 12  1  0
  1 13  1  0
  2 14  1  0
  4 15  1  0
  5 16  1  0
  6 17  1  0
 10 18  1  0
 11 19  1  0
 11 20  1  0
 12 21  1  0
 12 22  1  0
M  END
>  <_TriposChargeType>  (108) 
USER_CHARGES

>  <solvdG>  (108) 
-3.15

>  <fdG>  (108) 
-4.2

>  <fname>  (108) 
mobley_2261979

>  <cname>  (108) 
 acenaphthene

>  <dataset>  (108) 
FreeSolv

$$$$
(2S)-2-(6-methoxy-2-naphthyl)propanoic acid
     RDKit          3D

 31 32  0  0  0  0  0  0  0  0999 V2000
   -2.1511   -2.0709    2.3893 C   0  0  0  0  0  0  0  0  0  0  0  0
   -1.8842   -1.7017    0.9278 C   0  0  1  0  0  0  0  0  0  0  0  0
   -2.0054   -0.6140    0.8311 H   0  0  0  0  0  0  0  0  0  0  0  0
   -0.4966   -2.0341    0.4940 C   0  0  0  0  0  0  0  0  0  0  0  0
    0.3500   -1.0275    0.0392 C   0  0  0  0  0  0  0  0  0  0  0  0
    1.6484   -1.3369   -0.3665 C   0  0  0  0  0  0  0  0  0  0  0  0
    2.1168   -2.6602   -0.3222 C   0  0  0  0  0  0  0  0  0  0  0  0
    3.4207   -2.9899   -0.7267 C   0  0  0  0  0  0  0  0  0  0  0  0
    3.8693   -4.3100   -0.6758 C   0  0  0  0  0  0  0  0  0  0  0  0
    3.0228   -5.3167   -0.2210 C   0  0  0  0  0  0  0  0  0  0  0  0
    1.7243   -5.0072    0.1848 C   0  0  0  0  0  0  0  0  0  0  0  0
    1.2560   -3.6839    0.1403 C   0  0  0  0  0  0  0  0  0  0  0  0
   -0.0479   -3.3542    0.5448 C   0  0  0  0  0  0  0  0  0  0  0  0
    5.1359   -4.6133   -1.0716 O   0  0  0  0  0  0  0  0  0  0  0  0
    5.5300   -5.9823   -0.9940 C   0  0  0  0  0  0  0  0  0  0  0  0
   -2.9235   -2.3496    0.0245 C   0  0  0  0  0  0  0  0  0  0  0  0
   -3.4923   -3.4105    0.2472 O   0  0  0  0  0  0  0  0  0  0  0  0
   -3.1639   -1.6116   -1.0915 O   0  0  0  0  0  0  0  0  0  0  0  0
   -2.0484   -3.1473    2.5654 H   0  0  0  0  0  0  0  0  0  0  0  0
   -1.4632   -1.5469    3.0619 H   0  0  0  0  0  0  0  0  0  0  0  0
   -3.1721   -1.7997    2.6799 H   0  0  0  0  0  0  0  0  0  0  0  0
    0.0081    0.0033   -0.0032 H   0  0  0  0  0  0  0  0  0  0  0  0
    2.2923   -0.5339   -0.7186 H   0  0  0  0  0  0  0  0  0  0  0  0
    4.0953   -2.2146   -1.0855 H   0  0  0  0  0  0  0  0  0  0  0  0
    3.3664   -6.3467   -0.1791 H   0  0  0  0  0  0  0  0  0  0  0  0
    1.0796   -5.8098    0.5366 H   0  0  0  0  0  0  0  0  0  0  0  0
   -0.7202   -4.1321    0.9031 H   0  0  0  0  0  0  0  0  0  0  0  0
    6.5587   -6.0749   -1.3396 H   0  0  0  0  0  0  0  0  0  0  0  0
    4.8620   -6.5790   -1.6139 H   0  0  0  0  0  0  0  0  0  0  0  0
    5.4578   -6.3033    0.0442 H   0  0  0  0  0  0  0  0  0  0  0  0
   -2.6499   -0.7794   -1.1637 H   0  0  0  0  0  0  0  0  0  0  0  0
  1  2  1  0
  2  3  1  1
  2  4  1  0
  4 13  2  0
  4  5  1  0
  5  6  2  0
  6  7  1  0
  7 12  2  0
  7  8  1  0
  8  9  2  0
  9 10  1  0
 10 11  2  0
 11 12  1  0
 12 13  1  0
  9 14  1  0
 14 15  1  0
  2 16  1  0
 16 17  2  0
 16 18  1  0
  1 19  1  0
  1 20  1  0
  1 21  1  0
  5 22  1  0
  6 23  1  0
  8 24  1  0
 10 25  1  0
 11 26  1  0
 13 27  1  0
 15 28  1  0
 15 29  1  0
 15 30  1  0
 18 31  1  0
M  END
>  <_TriposChargeType>  (109) 
USER_CHARGES

>  <solvdG>  (109) 
-10.21

>  <fdG>  (109) 
-12.2

>  <fname>  (109) 
mobley_2269032

>  <cname>  (109) 
 naproxen

>  <dataset>  (109) 
FreeSolv

$$$$
trimethoxymethane
     RDKit          3D

 17 16  0  0  0  0  0  0  0  0999 V2000
   -0.6402    0.3195   -0.8311 C   0  0  0  0  0  0  0  0  0  0  0  0
    0.0234    0.0004   -2.0470 O   0  0  0  0  0  0  0  0  0  0  0  0
   -0.6863    0.4751   -3.1994 C   0  0  0  0  0  0  0  0  0  0  0  0
   -0.2849   -0.2223   -4.3889 O   0  0  0  0  0  0  0  0  0  0  0  0
   -0.9099   -1.4931   -4.5116 C   0  0  0  0  0  0  0  0  0  0  0  0
   -0.5679    1.8974   -3.3756 O   0  0  0  0  0  0  0  0  0  0  0  0
    0.7755    2.3323   -3.5425 C   0  0  0  0  0  0  0  0  0  0  0  0
   -0.0605   -0.0629    0.0125 H   0  0  0  0  0  0  0  0  0  0  0  0
   -1.6386   -0.1251   -0.8323 H   0  0  0  0  0  0  0  0  0  0  0  0
   -0.7272    1.4054   -0.7481 H   0  0  0  0  0  0  0  0  0  0  0  0
   -1.7581    0.2871   -3.0579 H   0  0  0  0  0  0  0  0  0  0  0  0
   -0.5687   -1.9743   -5.4292 H   0  0  0  0  0  0  0  0  0  0  0  0
   -1.9926   -1.3608   -4.5325 H   0  0  0  0  0  0  0  0  0  0  0  0
   -0.6316   -2.1042   -3.6520 H   0  0  0  0  0  0  0  0  0  0  0  0
    0.7890    3.4155   -3.6700 H   0  0  0  0  0  0  0  0  0  0  0  0
    1.2060    1.8417   -4.4166 H   0  0  0  0  0  0  0  0  0  0  0  0
    1.3439    2.0609   -2.6521 H   0  0  0  0  0  0  0  0  0  0  0  0
  1  2  1  0
  2  3  1  0
  3  4  1  0
  4  5  1  0
  3  6  1  0
  6  7  1  0
  1  8  1  0
  1  9  1  0
  1 10  1  0
  3 11  1  0
  5 12  1  0
  5 13  1  0
  5 14  1  0
  7 15  1  0
  7 16  1  0
  7 17  1  0
M  END
>  <_TriposChargeType>  (110) 
USER_CHARGES

>  <solvdG>  (110) 
-4.42

>  <fdG>  (110) 
-4.62

>  <fname>  (110) 
mobley_2279874

>  <cname>  (110) 
 trimethoxymethane

>  <dataset>  (110) 
FreeSolv

$$$$
ethyl formate
     RDKit          3D

 11 10  0  0  0  0  0  0  0  0999 V2000
    1.0616   -0.2681   -0.0006 C   0  0  0  0  0  0  0  0  0  0  0  0
    1.9101    0.9126   -0.4220 C   0  0  0  0  0  0  0  0  0  0  0  0
    1.5170    1.3236   -1.7228 O   0  0  0  0  0  0  0  0  0  0  0  0
    2.1979    2.3853   -2.2392 C   0  0  0  0  0  0  0  0  0  0  0  0
    3.1000    3.0130   -1.7072 O   0  0  0  0  0  0  0  0  0  0  0  0
    1.3393   -0.6108    1.0001 H   0  0  0  0  0  0  0  0  0  0  0  0
   -0.0000   -0.0002   -0.0006 H   0  0  0  0  0  0  0  0  0  0  0  0
    1.1801   -1.0990   -0.7040 H   0  0  0  0  0  0  0  0  0  0  0  0
    2.9684    0.6361   -0.4446 H   0  0  0  0  0  0  0  0  0  0  0  0
    1.7730    1.7499    0.2687 H   0  0  0  0  0  0  0  0  0  0  0  0
    1.8053    2.6060   -3.2438 H   0  0  0  0  0  0  0  0  0  0  0  0
  1  2  1  0
  2  3  1  0
  3  4  1  0
  4  5  2  0
  1  6  1  0
  1  7  1  0
  1  8  1  0
  2  9  1  0
  2 10  1  0
  4 11  1  0
M  END
>  <_TriposChargeType>  (111) 
USER_CHARGES

>  <solvdG>  (111) 
-2.56

>  <fdG>  (111) 
-3.87

>  <fname>  (111) 
mobley_2294995

>  <cname>  (111) 
 ethyl formate

>  <dataset>  (111) 
FreeSolv

$$$$
methyl 4-hydroxybenzoate
     RDKit          3D

 19 19  0  0  0  0  0  0  0  0999 V2000
    0.5839   -1.0128   -3.5063 C   0  0  0  0  0  0  0  0  0  0  0  0
    0.6724   -1.0309   -2.0775 O   0  0  0  0  0  0  0  0  0  0  0  0
    1.9295   -1.0140   -1.5659 C   0  0  0  0  0  0  0  0  0  0  0  0
    2.9704   -0.9853   -2.2039 O   0  0  0  0  0  0  0  0  0  0  0  0
    1.8851   -1.0363   -0.1124 C   0  0  0  0  0  0  0  0  0  0  0  0
    2.9210   -1.6309    0.6081 C   0  0  0  0  0  0  0  0  0  0  0  0
    2.8783   -1.6520    2.0022 C   0  0  0  0  0  0  0  0  0  0  0  0
    1.7997   -1.0786    2.6757 C   0  0  0  0  0  0  0  0  0  0  0  0
    0.7638   -0.4841    1.9551 C   0  0  0  0  0  0  0  0  0  0  0  0
    0.8066   -0.4630    0.5610 C   0  0  0  0  0  0  0  0  0  0  0  0
    1.7572   -1.0988    4.0360 O   0  0  0  0  0  0  0  0  0  0  0  0
   -0.4664   -1.0287   -3.8073 H   0  0  0  0  0  0  0  0  0  0  0  0
    1.1045   -1.8823   -3.9155 H   0  0  0  0  0  0  0  0  0  0  0  0
    1.0540   -0.1001   -3.8800 H   0  0  0  0  0  0  0  0  0  0  0  0
    3.7661   -2.0813    0.0940 H   0  0  0  0  0  0  0  0  0  0  0  0
    3.6886   -2.1157    2.5579 H   0  0  0  0  0  0  0  0  0  0  0  0
   -0.0793   -0.0363    2.4742 H   0  0  0  0  0  0  0  0  0  0  0  0
   -0.0055    0.0036    0.0092 H   0  0  0  0  0  0  0  0  0  0  0  0
    2.5434   -1.5438    4.3905 H   0  0  0  0  0  0  0  0  0  0  0  0
  1  2  1  0
  2  3  1  0
  3  4  2  0
  3  5  1  0
  5 10  2  0
  5  6  1  0
  6  7  2  0
  7  8  1  0
  8  9  2  0
  9 10  1  0
  8 11  1  0
  1 12  1  0
  1 13  1  0
  1 14  1  0
  6 15  1  0
  7 16  1  0
  9 17  1  0
 10 18  1  0
 11 19  1  0
M  END
>  <_TriposChargeType>  (112) 
USER_CHARGES

>  <solvdG>  (112) 
-9.51

>  <fdG>  (112) 
-9.79

>  <fname>  (112) 
mobley_2295058

>  <cname>  (112) 
 methyl paraben

>  <dataset>  (112) 
FreeSolv

$$$$
ethanol
     RDKit          3D

  9  8  0  0  0  0  0  0  0  0999 V2000
    1.0616   -0.2681   -0.0006 C   0  0  0  0  0  0  0  0  0  0  0  0
    1.9101    0.9126   -0.4220 C   0  0  0  0  0  0  0  0  0  0  0  0
    1.5170    1.3236   -1.7228 O   0  0  0  0  0  0  0  0  0  0  0  0
    1.3393   -0.6108    1.0001 H   0  0  0  0  0  0  0  0  0  0  0  0
   -0.0000   -0.0002   -0.0006 H   0  0  0  0  0  0  0  0  0  0  0  0
    1.1801   -1.0990   -0.7040 H   0  0  0  0  0  0  0  0  0  0  0  0
    2.9684    0.6361   -0.4446 H   0  0  0  0  0  0  0  0  0  0  0  0
    1.7730    1.7499    0.2687 H   0  0  0  0  0  0  0  0  0  0  0  0
    2.0787    2.0794   -1.9612 H   0  0  0  0  0  0  0  0  0  0  0  0
  1  2  1  0
  2  3  1  0
  1  4  1  0
  1  5  1  0
  1  6  1  0
  2  7  1  0
  2  8  1  0
  3  9  1  0
M  END
>  <_TriposChargeType>  (113) 
USER_CHARGES

>  <solvdG>  (113) 
-5.0

>  <fdG>  (113) 
-3.39

>  <fname>  (113) 
mobley_2310185

>  <cname>  (113) 
 ethanol

>  <dataset>  (113) 
FreeSolv

$$$$
1-(2-hydroxyethylamino)anthracene-9,10-dione
     RDKit          3D

 33 35  0  0  0  0  0  0  0  0999 V2000
    1.2904   -1.6865   -0.3516 C   0  0  0  0  0  0  0  0  0  0  0  0
    0.9563   -0.4630    0.2256 C   0  0  0  0  0  0  0  0  0  0  0  0
    1.8484    0.1684    1.0928 C   0  0  0  0  0  0  0  0  0  0  0  0
    3.0812   -0.4277    1.3842 C   0  0  0  0  0  0  0  0  0  0  0  0
    3.4160   -1.6538    0.8057 C   0  0  0  0  0  0  0  0  0  0  0  0
    2.5179   -2.2839   -0.0640 C   0  0  0  0  0  0  0  0  0  0  0  0
    4.7134   -2.2938    1.1043 C   0  0  0  0  0  0  0  0  0  0  0  0
    5.0075   -3.3691    0.5970 O   0  0  0  0  0  0  0  0  0  0  0  0
    5.6516   -1.6180    2.0237 C   0  0  0  0  0  0  0  0  0  0  0  0
    6.8845   -2.2140    2.3149 C   0  0  0  0  0  0  0  0  0  0  0  0
    7.7766   -1.5826    3.1822 C   0  0  0  0  0  0  0  0  0  0  0  0
    7.4425   -0.3591    3.7594 C   0  0  0  0  0  0  0  0  0  0  0  0
    6.2150    0.2382    3.4720 C   0  0  0  0  0  0  0  0  0  0  0  0
    5.3168   -0.3919    2.6022 C   0  0  0  0  0  0  0  0  0  0  0  0
    4.0194    0.2481    2.3036 C   0  0  0  0  0  0  0  0  0  0  0  0
    3.6911    1.3222    2.7914 O   0  0  0  0  0  0  0  0  0  0  0  0
    5.9467    1.4787    4.0953 N   0  0  0  0  0  0  0  0  0  0  0  0
    6.8690    2.1141    4.9816 C   0  0  0  0  0  0  0  0  0  0  0  0
    6.3146    3.4463    5.5086 C   0  0  0  0  0  0  0  0  0  0  0  0
    5.1040    3.1929    6.2102 O   0  0  0  0  0  0  0  0  0  0  0  0
    0.5941   -2.1759   -1.0263 H   0  0  0  0  0  0  0  0  0  0  0  0
    0.0002    0.0001   -0.0002 H   0  0  0  0  0  0  0  0  0  0  0  0
    1.5620    1.1218    1.5285 H   0  0  0  0  0  0  0  0  0  0  0  0
    2.7545   -3.2381   -0.5267 H   0  0  0  0  0  0  0  0  0  0  0  0
    7.1685   -3.1675    1.8781 H   0  0  0  0  0  0  0  0  0  0  0  0
    8.7334   -2.0451    3.4074 H   0  0  0  0  0  0  0  0  0  0  0  0
    8.1494    0.1194    4.4330 H   0  0  0  0  0  0  0  0  0  0  0  0
    5.0651    1.9055    3.8892 H   0  0  0  0  0  0  0  0  0  0  0  0
    7.8400    2.3029    4.4731 H   0  0  0  0  0  0  0  0  0  0  0  0
    7.0890    1.4620    5.8547 H   0  0  0  0  0  0  0  0  0  0  0  0
    6.0941    4.1455    4.6961 H   0  0  0  0  0  0  0  0  0  0  0  0
    7.0291    3.9112    6.1957 H   0  0  0  0  0  0  0  0  0  0  0  0
    4.7809    4.0510    6.5289 H   0  0  0  0  0  0  0  0  0  0  0  0
  1  6  2  0
  1  2  1  0
  2  3  2  0
  3  4  1  0
  4 15  1  0
  4  5  2  0
  5  6  1  0
  5  7  1  0
  7  8  2  0
  7  9  1  0
  9 14  2  0
  9 10  1  0
 10 11  2  0
 11 12  1  0
 12 13  2  0
 13 14  1  0
 14 15  1  0
 15 16  2  0
 13 17  1  0
 17 18  1  0
 18 19  1  0
 19 20  1  0
  1 21  1  0
  2 22  1  0
  3 23  1  0
  6 24  1  0
 10 25  1  0
 11 26  1  0
 12 27  1  0
 17 28  1  0
 18 29  1  0
 18 30  1  0
 19 31  1  0
 19 32  1  0
 20 33  1  0
M  END
>  <_TriposChargeType>  (114) 
USER_CHARGES

>  <solvdG>  (114) 
-14.21

>  <fdG>  (114) 
-13.6

>  <fname>  (114) 
mobley_2316618

>  <cname>  (114) 
 1-(2-hydroxyethylamino)-9,10-anthraquinone

>  <dataset>  (114) 
FreeSolv

$$$$
pentylcyclopentane
     RDKit          3D

 30 30  0  0  0  0  0  0  0  0999 V2000
    1.6439    1.0190   -8.5870 C   0  0  0  0  0  0  0  0  0  0  0  0
    1.0970    1.2147   -7.1819 C   0  0  0  0  0  0  0  0  0  0  0  0
    1.1193   -0.0897   -6.3855 C   0  0  0  0  0  0  0  0  0  0  0  0
    0.5686    0.1113   -4.9728 C   0  0  0  0  0  0  0  0  0  0  0  0
    0.5910   -1.1933   -4.1767 C   0  0  0  0  0  0  0  0  0  0  0  0
    0.0448   -0.9981   -2.7731 C   0  0  0  0  0  0  0  0  0  0  0  0
   -1.4278   -0.6007   -2.7506 C   0  0  0  0  0  0  0  0  0  0  0  0
   -1.8730   -0.9064   -1.3237 C   0  0  0  0  0  0  0  0  0  0  0  0
   -0.9147   -1.9774   -0.7996 C   0  0  0  0  0  0  0  0  0  0  0  0
    0.0492   -2.2777   -1.9427 C   0  0  0  0  0  0  0  0  0  0  0  0
    1.6242    1.9576   -9.1500 H   0  0  0  0  0  0  0  0  0  0  0  0
    1.0405    0.2846   -9.1297 H   0  0  0  0  0  0  0  0  0  0  0  0
    2.6764    0.6563   -8.5590 H   0  0  0  0  0  0  0  0  0  0  0  0
    0.0709    1.5949   -7.2454 H   0  0  0  0  0  0  0  0  0  0  0  0
    1.6940    1.9761   -6.6665 H   0  0  0  0  0  0  0  0  0  0  0  0
    2.1474   -0.4679   -6.3288 H   0  0  0  0  0  0  0  0  0  0  0  0
    0.5242   -0.8490   -6.9075 H   0  0  0  0  0  0  0  0  0  0  0  0
   -0.4594    0.4896   -5.0295 H   0  0  0  0  0  0  0  0  0  0  0  0
    1.1639    0.8704   -4.4509 H   0  0  0  0  0  0  0  0  0  0  0  0
   -0.0062   -1.9545   -4.6920 H   0  0  0  0  0  0  0  0  0  0  0  0
    1.6171   -1.5736   -4.1135 H   0  0  0  0  0  0  0  0  0  0  0  0
    0.6375   -0.2294   -2.2603 H   0  0  0  0  0  0  0  0  0  0  0  0
   -1.5796    0.4516   -3.0109 H   0  0  0  0  0  0  0  0  0  0  0  0
   -2.0081   -1.2083   -3.4563 H   0  0  0  0  0  0  0  0  0  0  0  0
   -1.8027   -0.0074   -0.7007 H   0  0  0  0  0  0  0  0  0  0  0  0
   -2.9144   -1.2428   -1.2960 H   0  0  0  0  0  0  0  0  0  0  0  0
   -0.3676   -1.5914    0.0684 H   0  0  0  0  0  0  0  0  0  0  0  0
   -1.4467   -2.8786   -0.4784 H   0  0  0  0  0  0  0  0  0  0  0  0
    1.0485   -2.5362   -1.5790 H   0  0  0  0  0  0  0  0  0  0  0  0
   -0.3249   -3.1266   -2.5285 H   0  0  0  0  0  0  0  0  0  0  0  0
  1  2  1  0
  2  3  1  0
  3  4  1  0
  4  5  1  0
  5  6  1  0
  6 10  1  0
  6  7  1  0
  7  8  1  0
  8  9  1  0
  9 10  1  0
  1 11  1  0
  1 12  1  0
  1 13  1  0
  2 14  1  0
  2 15  1  0
  3 16  1  0
  3 17  1  0
  4 18  1  0
  4 19  1  0
  5 20  1  0
  5 21  1  0
  6 22  1  0
  7 23  1  0
  7 24  1  0
  8 25  1  0
  8 26  1  0
  9 27  1  0
  9 28  1  0
 10 29  1  0
 10 30  1  0
M  END
>  <_TriposChargeType>  (115) 
USER_CHARGES

>  <solvdG>  (115) 
2.55

>  <fdG>  (115) 
2.38

>  <fname>  (115) 
mobley_2328633

>  <cname>  (115) 
 pentylcyclopentane

>  <dataset>  (115) 
FreeSolv

$$$$
methyl pentanoate
     RDKit          3D

 20 19  0  0  0  0  0  0  0  0999 V2000
   -0.5100    0.9075    0.3410 C   0  0  0  0  0  0  0  0  0  0  0  0
   -0.5735    0.9573    1.8590 C   0  0  0  0  0  0  0  0  0  0  0  0
    0.8236    0.9589    2.4780 C   0  0  0  0  0  0  0  0  0  0  0  0
    0.7559    1.0090    4.0034 C   0  0  0  0  0  0  0  0  0  0  0  0
    2.1308    1.0111    4.6317 C   0  0  0  0  0  0  0  0  0  0  0  0
    3.1878    0.9774    4.0169 O   0  0  0  0  0  0  0  0  0  0  0  0
    1.9955    1.0549    5.9905 O   0  0  0  0  0  0  0  0  0  0  0  0
    3.2196    1.0606    6.7322 C   0  0  0  0  0  0  0  0  0  0  0  0
   -1.5145    0.9067   -0.0941 H   0  0  0  0  0  0  0  0  0  0  0  0
    0.0364    1.7685   -0.0570 H   0  0  0  0  0  0  0  0  0  0  0  0
    0.0032   -0.0016    0.0126 H   0  0  0  0  0  0  0  0  0  0  0  0
   -1.1185    1.8573    2.1671 H   0  0  0  0  0  0  0  0  0  0  0  0
   -1.1415    0.0934    2.2234 H   0  0  0  0  0  0  0  0  0  0  0  0
    1.3925    1.8200    2.1052 H   0  0  0  0  0  0  0  0  0  0  0  0
    1.3691    0.0609    2.1617 H   0  0  0  0  0  0  0  0  0  0  0  0
    0.2109    0.1352    4.3782 H   0  0  0  0  0  0  0  0  0  0  0  0
    0.2341    1.9191    4.3202 H   0  0  0  0  0  0  0  0  0  0  0  0
    2.9851    1.0966    7.7937 H   0  0  0  0  0  0  0  0  0  0  0  0
    3.8043    1.9286    6.4355 H   0  0  0  0  0  0  0  0  0  0  0  0
    3.7621    0.1470    6.5000 H   0  0  0  0  0  0  0  0  0  0  0  0
  1  2  1  0
  2  3  1  0
  3  4  1  0
  4  5  1  0
  5  6  2  0
  5  7  1  0
  7  8  1  0
  1  9  1  0
  1 10  1  0
  1 11  1  0
  2 12  1  0
  2 13  1  0
  3 14  1  0
  3 15  1  0
  4 16  1  0
  4 17  1  0
  8 18  1  0
  8 19  1  0
  8 20  1  0
M  END
>  <_TriposChargeType>  (116) 
USER_CHARGES

>  <solvdG>  (116) 
-2.56

>  <fdG>  (116) 
-3.49

>  <fname>  (116) 
mobley_2341732

>  <cname>  (116) 
 methyl pentanoate

>  <dataset>  (116) 
FreeSolv

$$$$
3-ethylphenol
     RDKit          3D

 19 19  0  0  0  0  0  0  0  0999 V2000
    1.2665   -2.2410   -2.2077 C   0  0  0  0  0  0  0  0  0  0  0  0
    1.9309   -1.0139   -1.6027 C   0  0  0  0  0  0  0  0  0  0  0  0
    1.8851   -1.0363   -0.1124 C   0  0  0  0  0  0  0  0  0  0  0  0
    2.9210   -1.6309    0.6081 C   0  0  0  0  0  0  0  0  0  0  0  0
    2.8783   -1.6520    2.0022 C   0  0  0  0  0  0  0  0  0  0  0  0
    1.7997   -1.0786    2.6757 C   0  0  0  0  0  0  0  0  0  0  0  0
    0.7638   -0.4841    1.9551 C   0  0  0  0  0  0  0  0  0  0  0  0
    0.8066   -0.4630    0.5610 C   0  0  0  0  0  0  0  0  0  0  0  0
   -0.2885    0.0757    2.6119 O   0  0  0  0  0  0  0  0  0  0  0  0
    1.3053   -2.2151   -3.3020 H   0  0  0  0  0  0  0  0  0  0  0  0
    0.2152   -2.2890   -1.9068 H   0  0  0  0  0  0  0  0  0  0  0  0
    1.7567   -3.1625   -1.8759 H   0  0  0  0  0  0  0  0  0  0  0  0
    1.4397   -0.1060   -1.9736 H   0  0  0  0  0  0  0  0  0  0  0  0
    2.9730   -0.9531   -1.9393 H   0  0  0  0  0  0  0  0  0  0  0  0
    3.7654   -2.0801    0.0918 H   0  0  0  0  0  0  0  0  0  0  0  0
    3.6850   -2.1145    2.5631 H   0  0  0  0  0  0  0  0  0  0  0  0
    1.7717   -1.0978    3.7618 H   0  0  0  0  0  0  0  0  0  0  0  0
   -0.0022    0.0009    0.0015 H   0  0  0  0  0  0  0  0  0  0  0  0
   -0.1745   -0.0176    3.5712 H   0  0  0  0  0  0  0  0  0  0  0  0
  1  2  1  0
  2  3  1  0
  3  8  2  0
  3  4  1  0
  4  5  2  0
  5  6  1  0
  6  7  2  0
  7  8  1  0
  7  9  1  0
  1 10  1  0
  1 11  1  0
  1 12  1  0
  2 13  1  0
  2 14  1  0
  4 15  1  0
  5 16  1  0
  6 17  1  0
  8 18  1  0
  9 19  1  0
M  END
>  <_TriposChargeType>  (117) 
USER_CHARGES

>  <solvdG>  (117) 
-6.25

>  <fdG>  (117) 
-5.27

>  <fname>  (117) 
mobley_2354112

>  <cname>  (117) 
 3-ethylphenol

>  <dataset>  (117) 
FreeSolv

$$$$
butyl acetate
     RDKit          3D

 20 19  0  0  0  0  0  0  0  0999 V2000
    0.3902   -1.0212   -0.0846 C   0  0  0  0  0  0  0  0  0  0  0  0
   -0.5795   -2.0238    0.5201 C   0  0  0  0  0  0  0  0  0  0  0  0
   -1.9307   -1.9925   -0.1885 C   0  0  0  0  0  0  0  0  0  0  0  0
   -2.9047   -2.9950    0.4140 C   0  0  0  0  0  0  0  0  0  0  0  0
   -4.1377   -2.9158   -0.2877 O   0  0  0  0  0  0  0  0  0  0  0  0
   -5.1227   -3.7628    0.1405 C   0  0  0  0  0  0  0  0  0  0  0  0
   -5.0318   -4.5665    1.0587 O   0  0  0  0  0  0  0  0  0  0  0  0
   -6.3578   -3.5689   -0.6859 C   0  0  0  0  0  0  0  0  0  0  0  0
    1.3562   -1.0504    0.4294 H   0  0  0  0  0  0  0  0  0  0  0  0
    0.5590   -1.2299   -1.1459 H   0  0  0  0  0  0  0  0  0  0  0  0
   -0.0104   -0.0065    0.0025 H   0  0  0  0  0  0  0  0  0  0  0  0
   -0.1467   -3.0287    0.4522 H   0  0  0  0  0  0  0  0  0  0  0  0
   -0.7117   -1.7988    1.5848 H   0  0  0  0  0  0  0  0  0  0  0  0
   -2.3650   -0.9865   -0.1342 H   0  0  0  0  0  0  0  0  0  0  0  0
   -1.8040   -2.2065   -1.2572 H   0  0  0  0  0  0  0  0  0  0  0  0
   -2.5191   -4.0157    0.3260 H   0  0  0  0  0  0  0  0  0  0  0  0
   -3.0903   -2.7736    1.4699 H   0  0  0  0  0  0  0  0  0  0  0  0
   -6.3344   -4.2371   -1.5502 H   0  0  0  0  0  0  0  0  0  0  0  0
   -6.4298   -2.5264   -1.0062 H   0  0  0  0  0  0  0  0  0  0  0  0
   -7.2387   -3.8090   -0.0833 H   0  0  0  0  0  0  0  0  0  0  0  0
  1  2  1  0
  2  3  1  0
  3  4  1  0
  4  5  1  0
  5  6  1  0
  6  7  2  0
  6  8  1  0
  1  9  1  0
  1 10  1  0
  1 11  1  0
  2 12  1  0
  2 13  1  0
  3 14  1  0
  3 15  1  0
  4 16  1  0
  4 17  1  0
  8 18  1  0
  8 19  1  0
  8 20  1  0
M  END
>  <_TriposChargeType>  (118) 
USER_CHARGES

>  <solvdG>  (118) 
-2.64

>  <fdG>  (118) 
-3.41

>  <fname>  (118) 
mobley_2364370

>  <cname>  (118) 
 butyl acetate

>  <dataset>  (118) 
FreeSolv

$$$$
3,4-dimethylpyridine
     RDKit          3D

 17 17  0  0  0  0  0  0  0  0999 V2000
    2.3327    0.9026    1.0254 C   0  0  0  0  0  0  0  0  0  0  0  0
    1.3879   -0.0684    1.6522 C   0  0  0  0  0  0  0  0  0  0  0  0
    0.2265   -0.4197    0.9733 C   0  0  0  0  0  0  0  0  0  0  0  0
   -0.6317   -1.3224    1.5803 C   0  0  0  0  0  0  0  0  0  0  0  0
   -0.4092   -1.8816    2.7908 N   0  0  0  0  0  0  0  0  0  0  0  0
    0.7299   -1.5161    3.4206 C   0  0  0  0  0  0  0  0  0  0  0  0
    1.6520   -0.6227    2.8997 C   0  0  0  0  0  0  0  0  0  0  0  0
    2.8800   -0.2801    3.6700 C   0  0  0  0  0  0  0  0  0  0  0  0
    3.0693    0.3690    0.4172 H   0  0  0  0  0  0  0  0  0  0  0  0
    1.7966    1.6143    0.3888 H   0  0  0  0  0  0  0  0  0  0  0  0
    2.8590    1.4845    1.7895 H   0  0  0  0  0  0  0  0  0  0  0  0
   -0.0080   -0.0054   -0.0013 H   0  0  0  0  0  0  0  0  0  0  0  0
   -1.5510   -1.6289    1.0924 H   0  0  0  0  0  0  0  0  0  0  0  0
    0.8804   -1.9813    4.3900 H   0  0  0  0  0  0  0  0  0  0  0  0
    3.6958   -0.9697    3.4183 H   0  0  0  0  0  0  0  0  0  0  0  0
    3.2139    0.7443    3.4562 H   0  0  0  0  0  0  0  0  0  0  0  0
    2.7017   -0.3347    4.7526 H   0  0  0  0  0  0  0  0  0  0  0  0
  1  2  1  0
  2  7  2  0
  2  3  1  0
  3  4  2  0
  4  5  1  0
  5  6  2  0
  6  7  1  0
  7  8  1  0
  1  9  1  0
  1 10  1  0
  1 11  1  0
  3 12  1  0
  4 13  1  0
  6 14  1  0
  8 15  1  0
  8 16  1  0
  8 17  1  0
M  END
>  <_TriposChargeType>  (119) 
USER_CHARGES

>  <solvdG>  (119) 
-5.22

>  <fdG>  (119) 
-3.2

>  <fname>  (119) 
mobley_2371092

>  <cname>  (119) 
 3,4-dimethylpyridine

>  <dataset>  (119) 
FreeSolv

$$$$
heptan-4-one
     RDKit          3D

 22 21  0  0  0  0  0  0  0  0999 V2000
    1.0145    0.3942    0.1164 C   0  0  0  0  0  0  0  0  0  0  0  0
    1.1174    1.2152    1.3913 C   0  0  0  0  0  0  0  0  0  0  0  0
    2.5198    1.7872    1.5770 C   0  0  0  0  0  0  0  0  0  0  0  0
    2.6506    2.6141    2.8467 C   0  0  0  0  0  0  0  0  0  0  0  0
    1.7088    2.7842    3.6191 O   0  0  0  0  0  0  0  0  0  0  0  0
    4.0251    3.2153    3.0973 C   0  0  0  0  0  0  0  0  0  0  0  0
    4.0829    4.0303    4.3860 C   0  0  0  0  0  0  0  0  0  0  0  0
    5.4659    4.6189    4.6117 C   0  0  0  0  0  0  0  0  0  0  0  0
    0.0055   -0.0118   -0.0083 H   0  0  0  0  0  0  0  0  0  0  0  0
    1.2400    1.0169   -0.7550 H   0  0  0  0  0  0  0  0  0  0  0  0
    1.7222   -0.4409    0.1295 H   0  0  0  0  0  0  0  0  0  0  0  0
    0.8535    0.5855    2.2493 H   0  0  0  0  0  0  0  0  0  0  0  0
    0.3831    2.0289    1.3579 H   0  0  0  0  0  0  0  0  0  0  0  0
    2.7748    2.4314    0.7281 H   0  0  0  0  0  0  0  0  0  0  0  0
    3.2508    0.9727    1.6292 H   0  0  0  0  0  0  0  0  0  0  0  0
    4.2743    3.8529    2.2418 H   0  0  0  0  0  0  0  0  0  0  0  0
    4.7484    2.3936    3.1427 H   0  0  0  0  0  0  0  0  0  0  0  0
    3.3462    4.8417    4.3488 H   0  0  0  0  0  0  0  0  0  0  0  0
    3.8150    3.3981    5.2409 H   0  0  0  0  0  0  0  0  0  0  0  0
    5.4980    5.2016    5.5380 H   0  0  0  0  0  0  0  0  0  0  0  0
    6.2105    3.8201    4.6870 H   0  0  0  0  0  0  0  0  0  0  0  0
    5.7532    5.2740    3.7829 H   0  0  0  0  0  0  0  0  0  0  0  0
  1  2  1  0
  2  3  1  0
  3  4  1  0
  4  5  2  0
  4  6  1  0
  6  7  1  0
  7  8  1  0
  1  9  1  0
  1 10  1  0
  1 11  1  0
  2 12  1  0
  2 13  1  0
  3 14  1  0
  3 15  1  0
  6 16  1  0
  6 17  1  0
  7 18  1  0
  7 19  1  0
  8 20  1  0
  8 21  1  0
  8 22  1  0
M  END
>  <_TriposChargeType>  (120) 
USER_CHARGES

>  <solvdG>  (120) 
-2.92

>  <fdG>  (120) 
-2.7

>  <fname>  (120) 
mobley_2390199

>  <cname>  (120) 
 heptan-4-one

>  <dataset>  (120) 
FreeSolv

$$$$
diethyl propanedioate
     RDKit          3D

 23 22  0  0  0  0  0  0  0  0999 V2000
    0.5991   -0.5115    1.9485 C   0  0  0  0  0  0  0  0  0  0  0  0
    0.0978   -0.9061    0.5756 C   0  0  0  0  0  0  0  0  0  0  0  0
   -1.1706   -1.5555    0.7113 O   0  0  0  0  0  0  0  0  0  0  0  0
   -1.7484   -1.9701   -0.4566 C   0  0  0  0  0  0  0  0  0  0  0  0
   -1.2746   -1.8308   -1.5752 O   0  0  0  0  0  0  0  0  0  0  0  0
   -3.0694   -2.6259   -0.1356 C   0  0  0  0  0  0  0  0  0  0  0  0
   -3.8574   -3.1506   -1.3112 C   0  0  0  0  0  0  0  0  0  0  0  0
   -3.5161   -3.0877   -2.4836 O   0  0  0  0  0  0  0  0  0  0  0  0
   -5.0151   -3.7106   -0.8470 O   0  0  0  0  0  0  0  0  0  0  0  0
   -5.8786   -4.2610   -1.8470 C   0  0  0  0  0  0  0  0  0  0  0  0
   -7.0997   -4.8328   -1.1671 C   0  0  0  0  0  0  0  0  0  0  0  0
    1.5692   -0.0114    1.8807 H   0  0  0  0  0  0  0  0  0  0  0  0
   -0.1116    0.1605    2.4405 H   0  0  0  0  0  0  0  0  0  0  0  0
    0.7002   -1.3930    2.5903 H   0  0  0  0  0  0  0  0  0  0  0  0
    0.7976   -1.5964    0.0953 H   0  0  0  0  0  0  0  0  0  0  0  0
   -0.0248   -0.0220   -0.0571 H   0  0  0  0  0  0  0  0  0  0  0  0
   -2.8659   -3.4727    0.5293 H   0  0  0  0  0  0  0  0  0  0  0  0
   -3.6913   -1.8821    0.3751 H   0  0  0  0  0  0  0  0  0  0  0  0
   -6.1531   -3.4627   -2.5372 H   0  0  0  0  0  0  0  0  0  0  0  0
   -5.3296   -5.0363   -2.3823 H   0  0  0  0  0  0  0  0  0  0  0  0
   -7.7826   -5.2629   -1.9051 H   0  0  0  0  0  0  0  0  0  0  0  0
   -6.8181   -5.6111   -0.4502 H   0  0  0  0  0  0  0  0  0  0  0  0
   -7.6306   -4.0582   -0.6038 H   0  0  0  0  0  0  0  0  0  0  0  0
  1  2  1  0
  2  3  1  0
  3  4  1  0
  4  5  2  0
  4  6  1  0
  6  7  1  0
  7  8  2  0
  7  9  1  0
  9 10  1  0
 10 11  1  0
  1 12  1  0
  1 13  1  0
  1 14  1  0
  2 15  1  0
  2 16  1  0
  6 17  1  0
  6 18  1  0
 10 19  1  0
 10 20  1  0
 11 21  1  0
 11 22  1  0
 11 23  1  0
M  END
>  <_TriposChargeType>  (121) 
USER_CHARGES

>  <solvdG>  (121) 
-6.0

>  <fdG>  (121) 
-6.72

>  <fname>  (121) 
mobley_2402487

>  <cname>  (121) 
 diethyl propanedioate

>  <dataset>  (121) 
FreeSolv

$$$$
ethanamine
     RDKit          3D

 10  9  0  0  0  0  0  0  0  0999 V2000
    0.4075    0.1872    0.9994 C   0  0  0  0  0  0  0  0  0  0  0  0
    1.2109   -0.9764    1.4719 C   0  0  0  0  0  0  0  0  0  0  0  0
    2.3152   -1.2363    0.5901 N   0  0  0  0  0  0  0  0  0  0  0  0
   -0.4330    0.3816    1.6745 H   0  0  0  0  0  0  0  0  0  0  0  0
    1.0285    1.0868    0.9276 H   0  0  0  0  0  0  0  0  0  0  0  0
   -0.0006   -0.0231    0.0036 H   0  0  0  0  0  0  0  0  0  0  0  0
    0.5936   -1.8790    1.5087 H   0  0  0  0  0  0  0  0  0  0  0  0
    1.6184   -0.7872    2.4694 H   0  0  0  0  0  0  0  0  0  0  0  0
    3.1673   -0.7086    0.6991 H   0  0  0  0  0  0  0  0  0  0  0  0
    2.1623   -1.7846   -0.2422 H   0  0  0  0  0  0  0  0  0  0  0  0
  1  2  1  0
  2  3  1  0
  1  4  1  0
  1  5  1  0
  1  6  1  0
  2  7  1  0
  2  8  1  0
  3  9  1  0
  3 10  1  0
M  END
>  <_TriposChargeType>  (122) 
USER_CHARGES

>  <solvdG>  (122) 
-4.5

>  <fdG>  (122) 
-3.16

>  <fname>  (122) 
mobley_2410897

>  <cname>  (122) 
 ethanamine

>  <dataset>  (122) 
FreeSolv

$$$$
1-methoxypropane
     RDKit          3D

 15 14  0  0  0  0  0  0  0  0999 V2000
   -0.0023   -0.6657    0.8688 C   0  0  0  0  0  0  0  0  0  0  0  0
    1.2444   -0.4434    1.7060 C   0  0  0  0  0  0  0  0  0  0  0  0
    1.2749   -1.3494    2.9273 C   0  0  0  0  0  0  0  0  0  0  0  0
    2.4629   -1.0899    3.6622 O   0  0  0  0  0  0  0  0  0  0  0  0
    2.5499   -1.9092    4.8204 C   0  0  0  0  0  0  0  0  0  0  0  0
   -0.0099   -0.0072   -0.0057 H   0  0  0  0  0  0  0  0  0  0  0  0
   -0.0425   -1.7005    0.5148 H   0  0  0  0  0  0  0  0  0  0  0  0
   -0.9071   -0.4713    1.4534 H   0  0  0  0  0  0  0  0  0  0  0  0
    1.2973    0.6048    2.0240 H   0  0  0  0  0  0  0  0  0  0  0  0
    2.1387   -0.6182    1.0958 H   0  0  0  0  0  0  0  0  0  0  0  0
    0.4147   -1.1588    3.5770 H   0  0  0  0  0  0  0  0  0  0  0  0
    1.2712   -2.4035    2.6320 H   0  0  0  0  0  0  0  0  0  0  0  0
    3.4729   -1.6797    5.3547 H   0  0  0  0  0  0  0  0  0  0  0  0
    2.5357   -2.9582    4.5209 H   0  0  0  0  0  0  0  0  0  0  0  0
    1.6933   -1.6996    5.4624 H   0  0  0  0  0  0  0  0  0  0  0  0
  1  2  1  0
  2  3  1  0
  3  4  1  0
  4  5  1  0
  1  6  1  0
  1  7  1  0
  1  8  1  0
  2  9  1  0
  2 10  1  0
  3 11  1  0
  3 12  1  0
  5 13  1  0
  5 14  1  0
  5 15  1  0
M  END
>  <_TriposChargeType>  (123) 
USER_CHARGES

>  <solvdG>  (123) 
-1.66

>  <fdG>  (123) 
-0.6

>  <fname>  (123) 
mobley_2422586

>  <cname>  (123) 
 1-methoxypropane

>  <dataset>  (123) 
FreeSolv

$$$$
1,4-diaminoanthracene-9,10-dione
     RDKit          3D

 28 30  0  0  0  0  0  0  0  0999 V2000
    1.2904   -1.6865   -0.3516 C   0  0  0  0  0  0  0  0  0  0  0  0
    0.9563   -0.4630    0.2256 C   0  0  0  0  0  0  0  0  0  0  0  0
    1.8484    0.1684    1.0928 C   0  0  0  0  0  0  0  0  0  0  0  0
    3.0812   -0.4277    1.3842 C   0  0  0  0  0  0  0  0  0  0  0  0
    3.4160   -1.6538    0.8057 C   0  0  0  0  0  0  0  0  0  0  0  0
    2.5179   -2.2839   -0.0640 C   0  0  0  0  0  0  0  0  0  0  0  0
    4.7134   -2.2938    1.1043 C   0  0  0  0  0  0  0  0  0  0  0  0
    4.9714   -3.3693    0.5787 O   0  0  0  0  0  0  0  0  0  0  0  0
    5.6516   -1.6180    2.0237 C   0  0  0  0  0  0  0  0  0  0  0  0
    6.8845   -2.2140    2.3149 C   0  0  0  0  0  0  0  0  0  0  0  0
    7.7766   -1.5826    3.1822 C   0  0  0  0  0  0  0  0  0  0  0  0
    7.4425   -0.3591    3.7594 C   0  0  0  0  0  0  0  0  0  0  0  0
    6.2150    0.2382    3.4720 C   0  0  0  0  0  0  0  0  0  0  0  0
    5.3168   -0.3919    2.6022 C   0  0  0  0  0  0  0  0  0  0  0  0
    4.0194    0.2481    2.3036 C   0  0  0  0  0  0  0  0  0  0  0  0
    3.6908    1.3216    2.7926 O   0  0  0  0  0  0  0  0  0  0  0  0
    5.9471    1.4793    4.0940 N   0  0  0  0  0  0  0  0  0  0  0  0
    7.2936   -3.4518    1.7678 N   0  0  0  0  0  0  0  0  0  0  0  0
    0.5938   -2.1759   -1.0262 H   0  0  0  0  0  0  0  0  0  0  0  0
    0.0006    0.0006   -0.0008 H   0  0  0  0  0  0  0  0  0  0  0  0
    1.5625    1.1218    1.5289 H   0  0  0  0  0  0  0  0  0  0  0  0
    2.7513   -3.2384   -0.5281 H   0  0  0  0  0  0  0  0  0  0  0  0
    8.7375   -2.0343    3.4167 H   0  0  0  0  0  0  0  0  0  0  0  0
    8.1494    0.1196    4.4331 H   0  0  0  0  0  0  0  0  0  0  0  0
    6.6115    1.8510    4.7396 H   0  0  0  0  0  0  0  0  0  0  0  0
    5.0594    1.9123    3.9483 H   0  0  0  0  0  0  0  0  0  0  0  0
    6.6619   -3.9542    1.1803 H   0  0  0  0  0  0  0  0  0  0  0  0
    8.1662   -3.8432    2.0544 H   0  0  0  0  0  0  0  0  0  0  0  0
  1  6  2  0
  1  2  1  0
  2  3  2  0
  3  4  1  0
  4 15  1  0
  4  5  2  0
  5  6  1  0
  5  7  1  0
  7  8  2  0
  7  9  1  0
  9 14  2  0
  9 10  1  0
 10 11  2  0
 11 12  1  0
 12 13  2  0
 13 14  1  0
 14 15  1  0
 15 16  2  0
 13 17  1  0
 10 18  1  0
  1 19  1  0
  2 20  1  0
  3 21  1  0
  6 22  1  0
 11 23  1  0
 12 24  1  0
 17 25  1  0
 17 26  1  0
 18 27  1  0
 18 28  1  0
M  END
>  <_TriposChargeType>  (124) 
USER_CHARGES

>  <solvdG>  (124) 
-11.85

>  <fdG>  (124) 
-15.25

>  <fname>  (124) 
mobley_242480

>  <cname>  (124) 
 1,4-diamino-9,10-anthracenedione

>  <dataset>  (124) 
FreeSolv

$$$$
benzonitrile
     RDKit          3D

 13 13  0  0  0  0  0  0  0  0999 V2000
    1.8851   -1.0363   -0.1124 C   0  0  0  0  0  0  0  0  0  0  0  0
    2.9210   -1.6309    0.6081 C   0  0  0  0  0  0  0  0  0  0  0  0
    2.8783   -1.6520    2.0022 C   0  0  0  0  0  0  0  0  0  0  0  0
    1.7997   -1.0786    2.6757 C   0  0  0  0  0  0  0  0  0  0  0  0
    0.7638   -0.4841    1.9551 C   0  0  0  0  0  0  0  0  0  0  0  0
    0.8066   -0.4630    0.5610 C   0  0  0  0  0  0  0  0  0  0  0  0
    1.7557   -1.1005    4.1039 C   0  0  0  0  0  0  0  0  0  0  0  0
    1.7198   -1.1184    5.2650 N   0  0  0  0  0  0  0  0  0  0  0  0
    1.9173   -1.0213   -1.1980 H   0  0  0  0  0  0  0  0  0  0  0  0
    3.7607   -2.0782    0.0844 H   0  0  0  0  0  0  0  0  0  0  0  0
    3.6929   -2.1195    2.5500 H   0  0  0  0  0  0  0  0  0  0  0  0
   -0.0838   -0.0331    2.4655 H   0  0  0  0  0  0  0  0  0  0  0  0
   -0.0006   -0.0011    0.0001 H   0  0  0  0  0  0  0  0  0  0  0  0
  1  6  2  0
  1  2  1  0
  2  3  2  0
  3  4  1  0
  4  5  2  0
  5  6  1  0
  4  7  1  0
  7  8  3  0
  1  9  1  0
  2 10  1  0
  3 11  1  0
  5 12  1  0
  6 13  1  0
M  END
>  <_TriposChargeType>  (125) 
USER_CHARGES

>  <solvdG>  (125) 
-4.1

>  <fdG>  (125) 
-3.24

>  <fname>  (125) 
mobley_2451097

>  <cname>  (125) 
 benzonitrile

>  <dataset>  (125) 
FreeSolv

$$$$
3-methoxyphenol
     RDKit          3D

 17 17  0  0  0  0  0  0  0  0999 V2000
    0.8354   -0.3933   -2.1384 C   0  0  0  0  0  0  0  0  0  0  0  0
    1.9275   -1.0165   -1.4726 O   0  0  0  0  0  0  0  0  0  0  0  0
    1.8851   -1.0363   -0.1124 C   0  0  0  0  0  0  0  0  0  0  0  0
    2.9210   -1.6309    0.6081 C   0  0  0  0  0  0  0  0  0  0  0  0
    2.8783   -1.6520    2.0022 C   0  0  0  0  0  0  0  0  0  0  0  0
    1.7997   -1.0786    2.6757 C   0  0  0  0  0  0  0  0  0  0  0  0
    0.7638   -0.4841    1.9551 C   0  0  0  0  0  0  0  0  0  0  0  0
    0.8066   -0.4630    0.5610 C   0  0  0  0  0  0  0  0  0  0  0  0
   -0.2880    0.0754    2.6130 O   0  0  0  0  0  0  0  0  0  0  0  0
    0.9895   -0.4441   -3.2190 H   0  0  0  0  0  0  0  0  0  0  0  0
    0.7596    0.6491   -1.8189 H   0  0  0  0  0  0  0  0  0  0  0  0
   -0.0863   -0.9197   -1.8790 H   0  0  0  0  0  0  0  0  0  0  0  0
    3.7641   -2.0780    0.0888 H   0  0  0  0  0  0  0  0  0  0  0  0
    3.6852   -2.1143    2.5633 H   0  0  0  0  0  0  0  0  0  0  0  0
    1.7712   -1.0986    3.7617 H   0  0  0  0  0  0  0  0  0  0  0  0
   -0.0002    0.0011   -0.0005 H   0  0  0  0  0  0  0  0  0  0  0  0
   -0.9228    0.4458    1.9791 H   0  0  0  0  0  0  0  0  0  0  0  0
  1  2  1  0
  2  3  1  0
  3  8  2  0
  3  4  1  0
  4  5  2  0
  5  6  1  0
  6  7  2  0
  7  8  1  0
  7  9  1  0
  1 10  1  0
  1 11  1  0
  1 12  1  0
  4 13  1  0
  5 14  1  0
  6 15  1  0
  8 16  1  0
  9 17  1  0
M  END
>  <_TriposChargeType>  (126) 
USER_CHARGES

>  <solvdG>  (126) 
-7.66

>  <fdG>  (126) 
-6.97

>  <fname>  (126) 
mobley_2457863

>  <cname>  (126) 
 3-methoxyphenol

>  <dataset>  (126) 
FreeSolv

$$$$
trichloro(nitro)methane
     RDKit          3D

  7  6  0  0  0  0  0  0  0  0999 V2000
    0.5772   -0.0296    0.1599 C   0  0  0  0  0  0  0  0  0  0  0  0
   -0.8845    0.0632   -0.2386 N   0  0  0  0  0  4  0  0  0  0  0  0
   -1.4031   -0.8868   -0.8419 O   0  0  0  0  0  0  0  0  0  0  0  0
   -1.4901    1.1048    0.0616 O   0  0  0  0  0  1  0  0  0  0  0  0
    0.6842   -1.4348    1.2175 Cl  0  0  0  0  0  0  0  0  0  0  0  0
    1.4671   -0.2248   -1.3491 Cl  0  0  0  0  0  0  0  0  0  0  0  0
    1.0498    1.4486    0.9980 Cl  0  0  0  0  0  0  0  0  0  0  0  0
  1  2  1  0
  2  3  2  0
  2  4  1  0
  1  5  1  0
  1  6  1  0
  1  7  1  0
M  CHG  2   2   1   4  -1
M  END
>  <_TriposChargeType>  (127) 
USER_CHARGES

>  <solvdG>  (127) 
-1.45

>  <fdG>  (127) 
-0.38

>  <fname>  (127) 
mobley_2481002

>  <cname>  (127) 
 trichloro(nitro)methane

>  <dataset>  (127) 
FreeSolv

$$$$
chloromethylbenzene
     RDKit          3D

 15 15  0  0  0  0  0  0  0  0999 V2000
    1.8851   -1.0363   -0.1124 C   0  0  0  0  0  0  0  0  0  0  0  0
    2.9210   -1.6309    0.6081 C   0  0  0  0  0  0  0  0  0  0  0  0
    2.8783   -1.6520    2.0022 C   0  0  0  0  0  0  0  0  0  0  0  0
    1.7997   -1.0786    2.6757 C   0  0  0  0  0  0  0  0  0  0  0  0
    0.7638   -0.4841    1.9551 C   0  0  0  0  0  0  0  0  0  0  0  0
    0.8066   -0.4630    0.5610 C   0  0  0  0  0  0  0  0  0  0  0  0
    1.7548   -1.1014    4.1663 C   0  0  0  0  0  0  0  0  0  0  0  0
    2.5387    0.3449    4.8407 Cl  0  0  0  0  0  0  0  0  0  0  0  0
    1.9176   -1.0210   -1.1980 H   0  0  0  0  0  0  0  0  0  0  0  0
    3.7604   -2.0783    0.0841 H   0  0  0  0  0  0  0  0  0  0  0  0
    3.6899   -2.1173    2.5553 H   0  0  0  0  0  0  0  0  0  0  0  0
   -0.0804   -0.0348    2.4713 H   0  0  0  0  0  0  0  0  0  0  0  0
   -0.0006   -0.0010    0.0001 H   0  0  0  0  0  0  0  0  0  0  0  0
    2.2674   -1.9842    4.5708 H   0  0  0  0  0  0  0  0  0  0  0  0
    0.7217   -1.1308    4.5374 H   0  0  0  0  0  0  0  0  0  0  0  0
  1  6  2  0
  1  2  1  0
  2  3  2  0
  3  4  1  0
  4  5  2  0
  5  6  1  0
  4  7  1  0
  7  8  1  0
  1  9  1  0
  2 10  1  0
  3 11  1  0
  5 12  1  0
  6 13  1  0
  7 14  1  0
  7 15  1  0
M  END
>  <_TriposChargeType>  (128) 
USER_CHARGES

>  <solvdG>  (128) 
-1.93

>  <fdG>  (128) 
-1.74

>  <fname>  (128) 
mobley_2484519

>  <cname>  (128) 
 benzyl chloride

>  <dataset>  (128) 
FreeSolv

$$$$
hexan-2-one
     RDKit          3D

 19 18  0  0  0  0  0  0  0  0999 V2000
    5.2324   -3.7728    0.9382 C   0  0  0  0  0  0  0  0  0  0  0  0
    4.1008   -2.9946    0.2859 C   0  0  0  0  0  0  0  0  0  0  0  0
    3.2452   -2.2727    1.3260 C   0  0  0  0  0  0  0  0  0  0  0  0
    2.1100   -1.4926    0.6670 C   0  0  0  0  0  0  0  0  0  0  0  0
    1.2349   -0.7591    1.6733 C   0  0  0  0  0  0  0  0  0  0  0  0
    1.4612   -0.8204    2.8872 O   0  0  0  0  0  0  0  0  0  0  0  0
    0.0612    0.0536    1.0941 C   0  0  0  0  0  0  0  0  0  0  0  0
    5.8398   -4.2865    0.1861 H   0  0  0  0  0  0  0  0  0  0  0  0
    5.8854   -3.0951    1.4971 H   0  0  0  0  0  0  0  0  0  0  0  0
    4.8429   -4.5213    1.6356 H   0  0  0  0  0  0  0  0  0  0  0  0
    3.4777   -3.6849   -0.2947 H   0  0  0  0  0  0  0  0  0  0  0  0
    4.5231   -2.2681   -0.4180 H   0  0  0  0  0  0  0  0  0  0  0  0
    3.8731   -1.5886    1.9104 H   0  0  0  0  0  0  0  0  0  0  0  0
    2.8302   -3.0018    2.0333 H   0  0  0  0  0  0  0  0  0  0  0  0
    2.5213   -0.7470   -0.0225 H   0  0  0  0  0  0  0  0  0  0  0  0
    1.4668   -2.1760    0.1015 H   0  0  0  0  0  0  0  0  0  0  0  0
   -0.8500   -0.5527    1.0147 H   0  0  0  0  0  0  0  0  0  0  0  0
   -0.1962    0.9298    1.7021 H   0  0  0  0  0  0  0  0  0  0  0  0
    0.2852    0.4255    0.0862 H   0  0  0  0  0  0  0  0  0  0  0  0
  1  2  1  0
  2  3  1  0
  3  4  1  0
  4  5  1  0
  5  6  2  0
  5  7  1  0
  1  8  1  0
  1  9  1  0
  1 10  1  0
  2 11  1  0
  2 12  1  0
  3 13  1  0
  3 14  1  0
  4 15  1  0
  4 16  1  0
  7 17  1  0
  7 18  1  0
  7 19  1  0
M  END
>  <_TriposChargeType>  (129) 
USER_CHARGES

>  <solvdG>  (129) 
-3.28

>  <fdG>  (129) 
-3.01

>  <fname>  (129) 
mobley_2487143

>  <cname>  (129) 
 hexan-2-one

>  <dataset>  (129) 
FreeSolv

$$$$
1,2-dichlorobenzene
     RDKit          3D

 12 12  0  0  0  0  0  0  0  0999 V2000
    1.8851   -1.0363   -0.1124 C   0  0  0  0  0  0  0  0  0  0  0  0
    2.9210   -1.6309    0.6081 C   0  0  0  0  0  0  0  0  0  0  0  0
    2.8783   -1.6520    2.0022 C   0  0  0  0  0  0  0  0  0  0  0  0
    1.7997   -1.0786    2.6757 C   0  0  0  0  0  0  0  0  0  0  0  0
    0.7638   -0.4841    1.9551 C   0  0  0  0  0  0  0  0  0  0  0  0
    0.8066   -0.4630    0.5610 C   0  0  0  0  0  0  0  0  0  0  0  0
   -0.5990    0.2428    2.7315 Cl  0  0  0  0  0  0  0  0  0  0  0  0
    1.8044   -1.1366    4.4034 Cl  0  0  0  0  0  0  0  0  0  0  0  0
    1.9186   -1.0200   -1.1979 H   0  0  0  0  0  0  0  0  0  0  0  0
    3.7607   -2.0773    0.0835 H   0  0  0  0  0  0  0  0  0  0  0  0
    3.6942   -2.1196    2.5476 H   0  0  0  0  0  0  0  0  0  0  0  0
    0.0080   -0.0041   -0.0166 H   0  0  0  0  0  0  0  0  0  0  0  0
  1  6  2  0
  1  2  1  0
  2  3  2  0
  3  4  1  0
  4  5  2  0
  5  6  1  0
  5  7  1  0
  4  8  1  0
  1  9  1  0
  2 10  1  0
  3 11  1  0
  6 12  1  0
M  END
>  <_TriposChargeType>  (130) 
USER_CHARGES

>  <solvdG>  (130) 
-1.36

>  <fdG>  (130) 
-0.55

>  <fname>  (130) 
mobley_2489709

>  <cname>  (130) 
 1,2-dichlorobenzene

>  <dataset>  (130) 
FreeSolv

$$$$
1,1,1,2,2-pentachloroethane
     RDKit          3D

  8  7  0  0  0  0  0  0  0  0999 V2000
   -0.4928    0.4027   -0.4760 C   0  0  0  0  0  0  0  0  0  0  0  0
    0.4490   -0.4711    0.3773 C   0  0  0  0  0  0  0  0  0  0  0  0
    1.8648   -1.0081   -0.5970 Cl  0  0  0  0  0  0  0  0  0  0  0  0
   -0.3990   -1.9622    0.9252 Cl  0  0  0  0  0  0  0  0  0  0  0  0
    1.0593    0.3923    1.8265 Cl  0  0  0  0  0  0  0  0  0  0  0  0
   -1.9284    0.9734    0.4356 Cl  0  0  0  0  0  0  0  0  0  0  0  0
    0.3273    1.8413   -1.1653 Cl  0  0  0  0  0  0  0  0  0  0  0  0
   -0.8776   -0.1672   -1.3280 H   0  0  0  0  0  0  0  0  0  0  0  0
  1  2  1  0
  2  3  1  0
  2  4  1  0
  2  5  1  0
  1  6  1  0
  1  7  1  0
  1  8  1  0
M  END
>  <_TriposChargeType>  (131) 
USER_CHARGES

>  <solvdG>  (131) 
-1.23

>  <fdG>  (131) 
0.06

>  <fname>  (131) 
mobley_2492140

>  <cname>  (131) 
 1,1,1,2,2-pentachloroethane

>  <dataset>  (131) 
FreeSolv

$$$$
1,1-dichloroethylene
     RDKit          3D

  6  5  0  0  0  0  0  0  0  0999 V2000
   -0.9590    0.0622   -0.5384 C   0  0  0  0  0  0  0  0  0  0  0  0
   -1.7399   -1.0198   -0.7615 C   0  0  0  0  0  0  0  0  0  0  0  0
   -1.2827   -2.5972   -0.2096 Cl  0  0  0  0  0  0  0  0  0  0  0  0
   -3.2438   -0.8922   -1.6121 Cl  0  0  0  0  0  0  0  0  0  0  0  0
   -1.2338    1.0723   -0.8817 H   0  0  0  0  0  0  0  0  0  0  0  0
    0.0000    0.0000    0.0000 H   0  0  0  0  0  0  0  0  0  0  0  0
  1  2  2  3
  2  3  1  0
  2  4  1  0
  1  5  1  0
  1  6  1  0
M  END
>  <_TriposChargeType>  (132) 
USER_CHARGES

>  <solvdG>  (132) 
0.25

>  <fdG>  (132) 
1.11

>  <fname>  (132) 
mobley_2493732

>  <cname>  (132) 
 1,1-dichloroethylene

>  <dataset>  (132) 
FreeSolv

$$$$
N-(cyclopropylmethyl)-2,6-dinitro-N-propyl-4-(trifluoromethyl)aniline
     RDKit          3D

 40 41  0  0  0  0  0  0  0  0999 V2000
    3.4481    3.6057   -0.0289 C   0  0  0  0  0  0  0  0  0  0  0  0
    3.6344    2.8445   -1.3338 C   0  0  0  0  0  0  0  0  0  0  0  0
    2.6189    1.7221   -1.5111 C   0  0  0  0  0  0  0  0  0  0  0  0
    2.8015    1.0088   -2.7448 N   0  0  0  0  0  0  0  0  0  0  0  0
    2.7100    1.7478   -4.0090 C   0  0  0  0  0  0  0  0  0  0  0  0
    1.3666    2.3536   -4.1467 C   0  0  0  0  0  0  0  0  0  0  0  0
    1.1842    3.8466   -4.0339 C   0  0  0  0  0  0  0  0  0  0  0  0
    1.0148    3.1699   -5.3654 C   0  0  0  0  0  0  0  0  0  0  0  0
    3.0768   -0.3694   -2.7666 C   0  0  0  0  0  0  0  0  0  0  0  0
    4.3975   -0.8173   -2.7389 C   0  0  0  0  0  0  0  0  0  0  0  0
    4.6708   -2.1849   -2.7608 C   0  0  0  0  0  0  0  0  0  0  0  0
    3.6233   -3.1047   -2.8104 C   0  0  0  0  0  0  0  0  0  0  0  0
    2.3026   -2.6568   -2.8382 C   0  0  0  0  0  0  0  0  0  0  0  0
    2.0293   -1.2891   -2.8163 C   0  0  0  0  0  0  0  0  0  0  0  0
    0.6718   -0.8617   -2.8453 N   0  0  0  0  0  4  0  0  0  0  0  0
    0.1264   -0.6564   -3.9546 O   0  0  0  0  0  0  0  0  0  0  0  0
    0.0644   -0.7041   -1.7607 O   0  0  0  0  0  1  0  0  0  0  0  0
    3.9154   -4.5671   -2.8334 C   0  0  0  0  0  0  0  0  0  0  0  0
    5.2493   -4.8595   -2.8016 F   0  0  0  0  0  0  0  0  0  0  0  0
    3.3763   -5.2489   -1.7798 F   0  0  0  0  0  0  0  0  0  0  0  0
    3.4327   -5.1814   -3.9526 F   0  0  0  0  0  0  0  0  0  0  0  0
    5.4873    0.0972   -2.6876 N   0  0  0  0  0  4  0  0  0  0  0  0
    5.9188    0.4611   -1.5689 O   0  0  0  0  0  0  0  0  0  0  0  0
    5.9812    0.5100   -3.7627 O   0  0  0  0  0  1  0  0  0  0  0  0
    4.1909    4.4038    0.0690 H   0  0  0  0  0  0  0  0  0  0  0  0
    2.4540    4.0632    0.0016 H   0  0  0  0  0  0  0  0  0  0  0  0
    3.5385    2.9421    0.8366 H   0  0  0  0  0  0  0  0  0  0  0  0
    4.6428    2.4150   -1.3478 H   0  0  0  0  0  0  0  0  0  0  0  0
    3.5692    3.5471   -2.1730 H   0  0  0  0  0  0  0  0  0  0  0  0
    2.7219    0.9926   -0.7016 H   0  0  0  0  0  0  0  0  0  0  0  0
    1.5943    2.1068   -1.4947 H   0  0  0  0  0  0  0  0  0  0  0  0
    3.4909    2.5008   -3.9774 H   0  0  0  0  0  0  0  0  0  0  0  0
    2.9162    1.0292   -4.7954 H   0  0  0  0  0  0  0  0  0  0  0  0
    0.5828    1.7270   -3.7292 H   0  0  0  0  0  0  0  0  0  0  0  0
    0.2939    4.2131   -3.5377 H   0  0  0  0  0  0  0  0  0  0  0  0
    2.0635    4.4624   -3.8903 H   0  0  0  0  0  0  0  0  0  0  0  0
    0.0109    3.0828   -5.7625 H   0  0  0  0  0  0  0  0  0  0  0  0
    1.7807    3.3321   -6.1137 H   0  0  0  0  0  0  0  0  0  0  0  0
    5.6991   -2.5403   -2.7382 H   0  0  0  0  0  0  0  0  0  0  0  0
    1.4895   -3.3789   -2.8784 H   0  0  0  0  0  0  0  0  0  0  0  0
  1  2  1  0
  2  3  1  0
  3  4  1  0
  4  5  1  0
  5  6  1  0
  6  8  1  0
  6  7  1  0
  7  8  1  0
  4  9  1  0
  9 14  1  0
  9 10  2  0
 10 11  1  0
 11 12  2  0
 12 13  1  0
 13 14  2  0
 14 15  1  0
 15 16  2  0
 15 17  1  0
 12 18  1  0
 18 19  1  0
 18 20  1  0
 18 21  1  0
 10 22  1  0
 22 23  2  0
 22 24  1  0
  1 25  1  0
  1 26  1  0
  1 27  1  0
  2 28  1  0
  2 29  1  0
  3 30  1  0
  3 31  1  0
  5 32  1  0
  5 33  1  0
  6 34  1  0
  7 35  1  0
  7 36  1  0
  8 37  1  0
  8 38  1  0
 11 39  1  0
 13 40  1  0
M  CHG  4  15   1  17  -1  22   1  24  -1
M  END
>  <_TriposChargeType>  (133) 
USER_CHARGES

>  <solvdG>  (133) 
-2.45

>  <fdG>  (133) 
-1.96

>  <fname>  (133) 
mobley_2501588

>  <cname>  (133) 
 profluralin

>  <dataset>  (133) 
FreeSolv

$$$$
1-bromoheptane
     RDKit          3D

 23 22  0  0  0  0  0  0  0  0999 V2000
   -3.6402    0.4974    0.5281 C   0  0  0  0  0  0  0  0  0  0  0  0
   -2.1628    0.6283    0.8620 C   0  0  0  0  0  0  0  0  0  0  0  0
   -1.2838    0.0886   -0.2661 C   0  0  0  0  0  0  0  0  0  0  0  0
    0.2024    0.2222    0.0741 C   0  0  0  0  0  0  0  0  0  0  0  0
    1.0803   -0.3188   -1.0567 C   0  0  0  0  0  0  0  0  0  0  0  0
    2.5795   -0.2084   -0.7659 C   0  0  0  0  0  0  0  0  0  0  0  0
    3.4451   -0.7473   -1.8928 C   0  0  0  0  0  0  0  0  0  0  0  0
    5.3270   -0.5591   -1.4213 Br  0  0  0  0  0  0  0  0  0  0  0  0
   -4.2501    0.8892    1.3480 H   0  0  0  0  0  0  0  0  0  0  0  0
   -3.8887    1.0588   -0.3782 H   0  0  0  0  0  0  0  0  0  0  0  0
   -3.9156   -0.5501    0.3701 H   0  0  0  0  0  0  0  0  0  0  0  0
   -1.9542    0.0833    1.7901 H   0  0  0  0  0  0  0  0  0  0  0  0
   -1.9275    1.6832    1.0451 H   0  0  0  0  0  0  0  0  0  0  0  0
   -1.4997    0.6346   -1.1925 H   0  0  0  0  0  0  0  0  0  0  0  0
   -1.5255   -0.9657   -0.4482 H   0  0  0  0  0  0  0  0  0  0  0  0
    0.4076   -0.3225    1.0024 H   0  0  0  0  0  0  0  0  0  0  0  0
    0.4439    1.2765    0.2547 H   0  0  0  0  0  0  0  0  0  0  0  0
    0.8677    0.2424   -1.9752 H   0  0  0  0  0  0  0  0  0  0  0  0
    0.8213   -1.3652   -1.2590 H   0  0  0  0  0  0  0  0  0  0  0  0
    2.8163    0.8498   -0.5950 H   0  0  0  0  0  0  0  0  0  0  0  0
    2.8109   -0.7308    0.1709 H   0  0  0  0  0  0  0  0  0  0  0  0
    3.2846   -1.8132   -2.0713 H   0  0  0  0  0  0  0  0  0  0  0  0
    3.3007   -0.1916   -2.8232 H   0  0  0  0  0  0  0  0  0  0  0  0
  1  2  1  0
  2  3  1  0
  3  4  1  0
  4  5  1  0
  5  6  1  0
  6  7  1  0
  7  8  1  0
  1  9  1  0
  1 10  1  0
  1 11  1  0
  2 12  1  0
  2 13  1  0
  3 14  1  0
  3 15  1  0
  4 16  1  0
  4 17  1  0
  5 18  1  0
  5 19  1  0
  6 20  1  0
  6 21  1  0
  7 22  1  0
  7 23  1  0
M  END
>  <_TriposChargeType>  (134) 
USER_CHARGES

>  <solvdG>  (134) 
0.34

>  <fdG>  (134) 
1.22

>  <fname>  (134) 
mobley_2517158

>  <cname>  (134) 
 1-bromoheptane

>  <dataset>  (134) 
FreeSolv

$$$$
2-[(1S)-2-chloro-1-diethoxyphosphinothioylsulfanyl-ethyl]isoindoline-1,3-dione
     RDKit          3D

 40 41  0  0  0  0  0  0  0  0999 V2000
    2.0290    4.1208    3.8402 C   0  0  0  0  0  0  0  0  0  0  0  0
    0.7288    3.7574    3.1551 C   0  0  0  0  0  0  0  0  0  0  0  0
    1.0167    3.0143    1.9821 O   0  0  0  0  0  0  0  0  0  0  0  0
   -0.1954    2.4774    1.0248 P   0  0  0  0  0  5  0  0  0  0  0  0
   -1.2910    3.9444    0.3187 S   0  0  0  0  0  0  0  0  0  0  0  0
   -0.9929    1.5916    2.1440 O   0  0  0  0  0  0  0  0  0  0  0  0
   -2.1748    0.8905    1.7938 C   0  0  0  0  0  0  0  0  0  0  0  0
   -2.6976    0.1616    3.0139 C   0  0  0  0  0  0  0  0  0  0  0  0
    0.6689    1.1032   -0.3525 S   0  0  0  0  0  0  0  0  0  0  0  0
    1.3978   -0.2304    0.6528 C   0  0  1  0  0  0  0  0  0  0  0  0
    0.7211   -0.4592    1.4824 H   0  0  0  0  0  0  0  0  0  0  0  0
    1.6529   -1.4867   -0.1772 C   0  0  0  0  0  0  0  0  0  0  0  0
    2.3661   -2.7998    0.7940 Cl  0  0  0  0  0  0  0  0  0  0  0  0
    2.6280    0.2372    1.2389 N   0  0  0  0  0  0  0  0  0  0  0  0
    3.7177    0.6732    0.5063 C   0  0  0  0  0  0  0  0  0  0  0  0
    3.8689    0.7575   -0.6983 O   0  0  0  0  0  0  0  0  0  0  0  0
    4.7379    1.0454    1.4864 C   0  0  0  0  0  0  0  0  0  0  0  0
    6.0120    1.5394    1.2958 C   0  0  0  0  0  0  0  0  0  0  0  0
    6.7684    1.8085    2.4401 C   0  0  0  0  0  0  0  0  0  0  0  0
    6.2414    1.5810    3.7278 C   0  0  0  0  0  0  0  0  0  0  0  0
    4.9473    1.0802    3.8965 C   0  0  0  0  0  0  0  0  0  0  0  0
    4.2192    0.8219    2.7534 C   0  0  0  0  0  0  0  0  0  0  0  0
    2.8603    0.3037    2.6017 C   0  0  0  0  0  0  0  0  0  0  0  0
    2.1331    0.0096    3.5321 O   0  0  0  0  0  0  0  0  0  0  0  0
    1.8425    4.6961    4.7512 H   0  0  0  0  0  0  0  0  0  0  0  0
    2.5932    3.2192    4.1006 H   0  0  0  0  0  0  0  0  0  0  0  0
    2.6645    4.7122    3.1728 H   0  0  0  0  0  0  0  0  0  0  0  0
    0.1778    4.6598    2.8743 H   0  0  0  0  0  0  0  0  0  0  0  0
    0.1048    3.1471    3.8147 H   0  0  0  0  0  0  0  0  0  0  0  0
   -2.9170    1.6077    1.4292 H   0  0  0  0  0  0  0  0  0  0  0  0
   -1.9414    0.1803    0.9942 H   0  0  0  0  0  0  0  0  0  0  0  0
   -3.6112   -0.3909    2.7779 H   0  0  0  0  0  0  0  0  0  0  0  0
   -1.9481   -0.5403    3.3942 H   0  0  0  0  0  0  0  0  0  0  0  0
   -2.9111    0.8683    3.8227 H   0  0  0  0  0  0  0  0  0  0  0  0
    0.7107   -1.8742   -0.5799 H   0  0  0  0  0  0  0  0  0  0  0  0
    2.3136   -1.2920   -1.0296 H   0  0  0  0  0  0  0  0  0  0  0  0
    6.4174    1.7145    0.3064 H   0  0  0  0  0  0  0  0  0  0  0  0
    7.7777    2.1991    2.3381 H   0  0  0  0  0  0  0  0  0  0  0  0
    6.8521    1.7991    4.6002 H   0  0  0  0  0  0  0  0  0  0  0  0
    4.5424    0.9060    4.8865 H   0  0  0  0  0  0  0  0  0  0  0  0
  1  2  1  0
  2  3  1  0
  3  4  1  0
  4  5  2  0
  4  6  1  0
  6  7  1  0
  7  8  1  0
  4  9  1  0
  9 10  1  0
 10 11  1  1
 10 12  1  0
 12 13  1  0
 10 14  1  0
 14 23  1  0
 14 15  1  0
 15 16  2  0
 15 17  1  0
 17 22  2  0
 17 18  1  0
 18 19  2  0
 19 20  1  0
 20 21  2  0
 21 22  1  0
 22 23  1  0
 23 24  2  0
  1 25  1  0
  1 26  1  0
  1 27  1  0
  2 28  1  0
  2 29  1  0
  7 30  1  0
  7 31  1  0
  8 32  1  0
  8 33  1  0
  8 34  1  0
 12 35  1  0
 12 36  1  0
 18 37  1  0
 19 38  1  0
 20 39  1  0
 21 40  1  0
M  END
>  <_TriposChargeType>  (135) 
USER_CHARGES

>  <solvdG>  (135) 
-5.74

>  <fdG>  (135) 
-16.52

>  <fname>  (135) 
mobley_2518989

>  <cname>  (135) 
 dialifor

>  <dataset>  (135) 
FreeSolv

$$$$
5-amino-4-chloro-2-phenyl-pyridazin-3-one
     RDKit          3D

 23 24  0  0  0  0  0  0  0  0999 V2000
    6.0296    0.7035   -6.7360 C   0  0  0  0  0  0  0  0  0  0  0  0
    6.3138   -0.1386   -5.6609 C   0  0  0  0  0  0  0  0  0  0  0  0
    5.3926   -0.2799   -4.6232 C   0  0  0  0  0  0  0  0  0  0  0  0
    4.1871    0.4209   -4.6605 C   0  0  0  0  0  0  0  0  0  0  0  0
    3.9029    1.2629   -5.7357 C   0  0  0  0  0  0  0  0  0  0  0  0
    4.8242    1.4042   -6.7734 C   0  0  0  0  0  0  0  0  0  0  0  0
    3.2337    0.2748   -3.5870 N   0  0  0  0  0  0  0  0  0  0  0  0
    1.8445    0.3726   -3.7330 C   0  0  0  0  0  0  0  0  0  0  0  0
    1.2405    0.5133   -4.7962 O   0  0  0  0  0  0  0  0  0  0  0  0
    1.0405    0.2704   -2.4781 C   0  0  0  0  0  0  0  0  0  0  0  0
    1.6026    0.0360   -1.2907 C   0  0  0  0  0  0  0  0  0  0  0  0
    3.0630   -0.1058   -1.3399 C   0  0  0  0  0  0  0  0  0  0  0  0
    3.8182    0.0039   -2.3776 N   0  0  0  0  0  0  0  0  0  0  0  0
    1.0057   -0.0887   -0.0755 N   0  0  0  0  0  0  0  0  0  0  0  0
   -0.6732    0.4609   -2.6326 Cl  0  0  0  0  0  0  0  0  0  0  0  0
    6.7469    0.8126   -7.5443 H   0  0  0  0  0  0  0  0  0  0  0  0
    7.2522   -0.6849   -5.6326 H   0  0  0  0  0  0  0  0  0  0  0  0
    5.6248   -0.9390   -3.7903 H   0  0  0  0  0  0  0  0  0  0  0  0
    2.9666    1.8139   -5.7757 H   0  0  0  0  0  0  0  0  0  0  0  0
    4.6022    2.0592   -7.6107 H   0  0  0  0  0  0  0  0  0  0  0  0
    3.5535   -0.3250   -0.3765 H   0  0  0  0  0  0  0  0  0  0  0  0
    1.5759   -0.2656    0.7255 H   0  0  0  0  0  0  0  0  0  0  0  0
    0.0126   -0.0002   -0.0150 H   0  0  0  0  0  0  0  0  0  0  0  0
  1  6  2  0
  1  2  1  0
  2  3  2  0
  3  4  1  0
  4  5  2  0
  5  6  1  0
  4  7  1  0
  7 13  1  0
  7  8  1  0
  8  9  2  0
  8 10  1  0
 10 11  2  0
 11 12  1  0
 12 13  2  0
 11 14  1  0
 10 15  1  0
  1 16  1  0
  2 17  1  0
  3 18  1  0
  5 19  1  0
  6 20  1  0
 12 21  1  0
 14 22  1  0
 14 23  1  0
M  END
>  <_TriposChargeType>  (136) 
USER_CHARGES

>  <solvdG>  (136) 
-16.43

>  <fdG>  (136) 
-16.04

>  <fname>  (136) 
mobley_2523689

>  <cname>  (136) 
 5-Amino-4-chloro-2-phenylpyridazin-3(2H)-one

>  <dataset>  (136) 
FreeSolv

$$$$
2,2-dimethylpentane
     RDKit          3D

 23 22  0  0  0  0  0  0  0  0999 V2000
   -2.9139   -1.4057    0.0155 C   0  0  0  0  0  0  0  0  0  0  0  0
   -1.4069   -1.5537    0.1742 C   0  0  0  0  0  0  0  0  0  0  0  0
   -0.7212   -0.1852    0.2516 C   0  0  0  0  0  0  0  0  0  0  0  0
    0.8221   -0.2124    0.4145 C   0  0  0  0  0  0  0  0  0  0  0  0
    1.4938   -0.9341   -0.7653 C   0  0  0  0  0  0  0  0  0  0  0  0
    1.3944    1.2099    0.5306 C   0  0  0  0  0  0  0  0  0  0  0  0
    1.1544   -0.9797    1.7095 C   0  0  0  0  0  0  0  0  0  0  0  0
   -3.4009   -2.3845   -0.0395 H   0  0  0  0  0  0  0  0  0  0  0  0
   -3.3333   -0.8656    0.8702 H   0  0  0  0  0  0  0  0  0  0  0  0
   -3.1600   -0.8470   -0.8931 H   0  0  0  0  0  0  0  0  0  0  0  0
   -1.2085   -2.1335    1.0813 H   0  0  0  0  0  0  0  0  0  0  0  0
   -1.0229   -2.1277   -0.6752 H   0  0  0  0  0  0  0  0  0  0  0  0
   -1.1573    0.3748    1.0902 H   0  0  0  0  0  0  0  0  0  0  0  0
   -0.9729    0.3813   -0.6553 H   0  0  0  0  0  0  0  0  0  0  0  0
    2.5831   -0.9524   -0.6487 H   0  0  0  0  0  0  0  0  0  0  0  0
    1.1469   -1.9682   -0.8600 H   0  0  0  0  0  0  0  0  0  0  0  0
    1.2700   -0.4312   -1.7133 H   0  0  0  0  0  0  0  0  0  0  0  0
    2.4843    1.1877    0.6455 H   0  0  0  0  0  0  0  0  0  0  0  0
    0.9798    1.7325    1.3996 H   0  0  0  0  0  0  0  0  0  0  0  0
    1.1768    1.8094   -0.3593 H   0  0  0  0  0  0  0  0  0  0  0  0
    2.2368   -1.0290    1.8737 H   0  0  0  0  0  0  0  0  0  0  0  0
    0.7076   -0.4952    2.5852 H   0  0  0  0  0  0  0  0  0  0  0  0
    0.7751   -2.0071    1.6689 H   0  0  0  0  0  0  0  0  0  0  0  0
  1  2  1  0
  2  3  1  0
  3  4  1  0
  4  5  1  0
  4  6  1  0
  4  7  1  0
  1  8  1  0
  1  9  1  0
  1 10  1  0
  2 11  1  0
  2 12  1  0
  3 13  1  0
  3 14  1  0
  5 15  1  0
  5 16  1  0
  5 17  1  0
  6 18  1  0
  6 19  1  0
  6 20  1  0
  7 21  1  0
  7 22  1  0
  7 23  1  0
M  END
>  <_TriposChargeType>  (137) 
USER_CHARGES

>  <solvdG>  (137) 
2.88

>  <fdG>  (137) 
2.69

>  <fname>  (137) 
mobley_252413

>  <cname>  (137) 
 2,2-dimethylpentane

>  <dataset>  (137) 
FreeSolv

$$$$
pyrene
     RDKit          3D

 26 29  0  0  0  0  0  0  0  0999 V2000
    5.0009    4.9505    4.0349 C   0  0  0  0  0  0  0  0  0  0  0  0
    5.3099    4.5612    2.7327 C   0  0  0  0  0  0  0  0  0  0  0  0
    4.4555    3.7058    2.0218 C   0  0  0  0  0  0  0  0  0  0  0  0
    4.7481    3.3027    0.7120 C   0  0  0  0  0  0  0  0  0  0  0  0
    3.8872    2.4505    0.0174 C   0  0  0  0  0  0  0  0  0  0  0  0
    2.7103    1.9783    0.6137 C   0  0  0  0  0  0  0  0  0  0  0  0
    1.8355    1.1218   -0.0706 C   0  0  0  0  0  0  0  0  0  0  0  0
    0.6697    0.6630    0.5403 C   0  0  0  0  0  0  0  0  0  0  0  0
    0.3606    1.0524    1.8425 C   0  0  0  0  0  0  0  0  0  0  0  0
    1.2150    1.9078    2.5533 C   0  0  0  0  0  0  0  0  0  0  0  0
    2.3984    2.3744    1.9351 C   0  0  0  0  0  0  0  0  0  0  0  0
    3.2721    3.2392    2.6400 C   0  0  0  0  0  0  0  0  0  0  0  0
    2.9602    3.6354    3.9615 C   0  0  0  0  0  0  0  0  0  0  0  0
    3.8351    4.4917    4.6458 C   0  0  0  0  0  0  0  0  0  0  0  0
    1.7833    3.1630    4.5578 C   0  0  0  0  0  0  0  0  0  0  0  0
    0.9225    2.3109    3.8632 C   0  0  0  0  0  0  0  0  0  0  0  0
    5.6703    5.6134    4.5754 H   0  0  0  0  0  0  0  0  0  0  0  0
    6.2255    4.9328    2.2776 H   0  0  0  0  0  0  0  0  0  0  0  0
    5.6526    3.6487    0.2159 H   0  0  0  0  0  0  0  0  0  0  0  0
    4.1479    2.1593   -0.9982 H   0  0  0  0  0  0  0  0  0  0  0  0
    2.0548    0.8037   -1.0877 H   0  0  0  0  0  0  0  0  0  0  0  0
    0.0003    0.0001   -0.0005 H   0  0  0  0  0  0  0  0  0  0  0  0
   -0.5553    0.6810    2.2973 H   0  0  0  0  0  0  0  0  0  0  0  0
    3.6160    4.8096    5.6629 H   0  0  0  0  0  0  0  0  0  0  0  0
    1.5226    3.4542    5.5735 H   0  0  0  0  0  0  0  0  0  0  0  0
    0.0181    1.9649    4.3591 H   0  0  0  0  0  0  0  0  0  0  0  0
  1 14  2  0
  1  2  1  0
  2  3  2  0
  3 12  1  0
  3  4  1  0
  4  5  2  0
  5  6  1  0
  6 11  2  0
  6  7  1  0
  7  8  2  0
  8  9  1  0
  9 10  2  0
 10 16  1  0
 10 11  1  0
 11 12  1  0
 12 13  2  0
 13 14  1  0
 13 15  1  0
 15 16  2  0
  1 17  1  0
  2 18  1  0
  4 19  1  0
  5 20  1  0
  7 21  1  0
  8 22  1  0
  9 23  1  0
 14 24  1  0
 15 25  1  0
 16 26  1  0
M  END
>  <_TriposChargeType>  (138) 
USER_CHARGES

>  <solvdG>  (138) 
-4.52

>  <fdG>  (138) 
-6.79

>  <fname>  (138) 
mobley_2577969

>  <cname>  (138) 
 pyrene

>  <dataset>  (138) 
FreeSolv

$$$$
hexyl acetate
     RDKit          3D

 26 25  0  0  0  0  0  0  0  0999 V2000
    1.7561   -1.3904    0.8917 C   0  0  0  0  0  0  0  0  0  0  0  0
    1.1577   -1.8697    2.2056 C   0  0  0  0  0  0  0  0  0  0  0  0
   -0.1230   -1.1065    2.5457 C   0  0  0  0  0  0  0  0  0  0  0  0
   -0.7660   -1.5523    3.8620 C   0  0  0  0  0  0  0  0  0  0  0  0
   -2.0456   -0.7898    4.2020 C   0  0  0  0  0  0  0  0  0  0  0  0
   -2.6476   -1.2671    5.5170 C   0  0  0  0  0  0  0  0  0  0  0  0
   -3.8301   -0.5236    5.7776 O   0  0  0  0  0  0  0  0  0  0  0  0
   -4.4903   -0.8396    6.9332 C   0  0  0  0  0  0  0  0  0  0  0  0
   -4.1540   -1.6917    7.7442 O   0  0  0  0  0  0  0  0  0  0  0  0
   -5.7100    0.0196    7.0756 C   0  0  0  0  0  0  0  0  0  0  0  0
    2.6706   -1.9479    0.6661 H   0  0  0  0  0  0  0  0  0  0  0  0
    1.0549   -1.5384    0.0642 H   0  0  0  0  0  0  0  0  0  0  0  0
    2.0105   -0.3268    0.9409 H   0  0  0  0  0  0  0  0  0  0  0  0
    1.8950   -1.7365    3.0056 H   0  0  0  0  0  0  0  0  0  0  0  0
    0.9526   -2.9424    2.1254 H   0  0  0  0  0  0  0  0  0  0  0  0
   -0.8464   -1.2130    1.7282 H   0  0  0  0  0  0  0  0  0  0  0  0
    0.1084   -0.0368    2.6242 H   0  0  0  0  0  0  0  0  0  0  0  0
   -0.0356   -1.4015    4.6668 H   0  0  0  0  0  0  0  0  0  0  0  0
   -0.9747   -2.6284    3.8233 H   0  0  0  0  0  0  0  0  0  0  0  0
   -2.7918   -0.9089    3.4080 H   0  0  0  0  0  0  0  0  0  0  0  0
   -1.8415    0.2862    4.2659 H   0  0  0  0  0  0  0  0  0  0  0  0
   -2.9083   -2.3289    5.4642 H   0  0  0  0  0  0  0  0  0  0  0  0
   -1.9496   -1.1119    6.3459 H   0  0  0  0  0  0  0  0  0  0  0  0
   -6.5653   -0.4693    6.6028 H   0  0  0  0  0  0  0  0  0  0  0  0
   -5.5285    0.9989    6.6256 H   0  0  0  0  0  0  0  0  0  0  0  0
   -5.9322    0.1607    8.1373 H   0  0  0  0  0  0  0  0  0  0  0  0
  1  2  1  0
  2  3  1  0
  3  4  1  0
  4  5  1  0
  5  6  1  0
  6  7  1  0
  7  8  1  0
  8  9  2  0
  8 10  1  0
  1 11  1  0
  1 12  1  0
  1 13  1  0
  2 14  1  0
  2 15  1  0
  3 16  1  0
  3 17  1  0
  4 18  1  0
  4 19  1  0
  5 20  1  0
  5 21  1  0
  6 22  1  0
  6 23  1  0
 10 24  1  0
 10 25  1  0
 10 26  1  0
M  END
>  <_TriposChargeType>  (139) 
USER_CHARGES

>  <solvdG>  (139) 
-2.26

>  <fdG>  (139) 
-2.22

>  <fname>  (139) 
mobley_2607611

>  <cname>  (139) 
 hexyl acetate

>  <dataset>  (139) 
FreeSolv

$$$$
3,3-dimethylpentane
     RDKit          3D

 23 22  0  0  0  0  0  0  0  0999 V2000
   -0.5076   -0.4808    0.8472 C   0  0  0  0  0  0  0  0  0  0  0  0
   -1.9974   -0.5983    0.5479 C   0  0  0  0  0  0  0  0  0  0  0  0
   -2.8406   -1.3572    1.6082 C   0  0  0  0  0  0  0  0  0  0  0  0
   -2.7382   -0.6454    2.9740 C   0  0  0  0  0  0  0  0  0  0  0  0
   -4.3188   -1.3068    1.1665 C   0  0  0  0  0  0  0  0  0  0  0  0
   -2.3925   -2.8314    1.8011 C   0  0  0  0  0  0  0  0  0  0  0  0
   -2.4712   -3.7148    0.5617 C   0  0  0  0  0  0  0  0  0  0  0  0
    0.0216    0.0638    0.0604 H   0  0  0  0  0  0  0  0  0  0  0  0
   -0.0637   -1.4801    0.9097 H   0  0  0  0  0  0  0  0  0  0  0  0
   -0.3243    0.0189    1.8023 H   0  0  0  0  0  0  0  0  0  0  0  0
   -2.3988    0.4171    0.4296 H   0  0  0  0  0  0  0  0  0  0  0  0
   -2.1138   -1.0780   -0.4319 H   0  0  0  0  0  0  0  0  0  0  0  0
   -3.3271   -1.1658    3.7378 H   0  0  0  0  0  0  0  0  0  0  0  0
   -3.0956    0.3882    2.9209 H   0  0  0  0  0  0  0  0  0  0  0  0
   -1.6996   -0.6116    3.3232 H   0  0  0  0  0  0  0  0  0  0  0  0
   -4.9721   -1.8268    1.8748 H   0  0  0  0  0  0  0  0  0  0  0  0
   -4.6722   -0.2731    1.0802 H   0  0  0  0  0  0  0  0  0  0  0  0
   -4.4540   -1.7853    0.1896 H   0  0  0  0  0  0  0  0  0  0  0  0
   -1.3627   -2.8601    2.1783 H   0  0  0  0  0  0  0  0  0  0  0  0
   -3.0076   -3.2940    2.5845 H   0  0  0  0  0  0  0  0  0  0  0  0
   -2.1342   -4.7273    0.8081 H   0  0  0  0  0  0  0  0  0  0  0  0
   -3.4947   -3.7932    0.1850 H   0  0  0  0  0  0  0  0  0  0  0  0
   -1.8301   -3.3433   -0.2424 H   0  0  0  0  0  0  0  0  0  0  0  0
  1  2  1  0
  2  3  1  0
  3  4  1  0
  3  5  1  0
  3  6  1  0
  6  7  1  0
  1  8  1  0
  1  9  1  0
  1 10  1  0
  2 11  1  0
  2 12  1  0
  4 13  1  0
  4 14  1  0
  4 15  1  0
  5 16  1  0
  5 17  1  0
  5 18  1  0
  6 19  1  0
  6 20  1  0
  7 21  1  0
  7 22  1  0
  7 23  1  0
M  END
>  <_TriposChargeType>  (140) 
USER_CHARGES

>  <solvdG>  (140) 
2.56

>  <fdG>  (140) 
2.59

>  <fname>  (140) 
mobley_2609604

>  <cname>  (140) 
 3,3-dimethylpentane

>  <dataset>  (140) 
FreeSolv

$$$$
1,2-dimethoxybenzene
     RDKit          3D

 20 20  0  0  0  0  0  0  0  0999 V2000
    1.3496   -2.1275   -2.1490 C   0  0  0  0  0  0  0  0  0  0  0  0
    1.9380   -1.0221   -1.4736 O   0  0  0  0  0  0  0  0  0  0  0  0
    1.8851   -1.0363   -0.1124 C   0  0  0  0  0  0  0  0  0  0  0  0
    2.9210   -1.6309    0.6081 C   0  0  0  0  0  0  0  0  0  0  0  0
    2.8783   -1.6520    2.0022 C   0  0  0  0  0  0  0  0  0  0  0  0
    1.7997   -1.0786    2.6757 C   0  0  0  0  0  0  0  0  0  0  0  0
    0.7638   -0.4841    1.9551 C   0  0  0  0  0  0  0  0  0  0  0  0
    0.8066   -0.4630    0.5610 C   0  0  0  0  0  0  0  0  0  0  0  0
   -0.2120    0.1189   -0.1313 O   0  0  0  0  0  0  0  0  0  0  0  0
   -1.2767    0.6818    0.6328 C   0  0  0  0  0  0  0  0  0  0  0  0
    1.4580   -1.9957   -3.2284 H   0  0  0  0  0  0  0  0  0  0  0  0
    0.2915   -2.1963   -1.8841 H   0  0  0  0  0  0  0  0  0  0  0  0
    1.8601   -3.0437   -1.8430 H   0  0  0  0  0  0  0  0  0  0  0  0
    3.7636   -2.0800    0.0898 H   0  0  0  0  0  0  0  0  0  0  0  0
    3.6855   -2.1140    2.5632 H   0  0  0  0  0  0  0  0  0  0  0  0
    1.7656   -1.0967    3.7611 H   0  0  0  0  0  0  0  0  0  0  0  0
   -0.0744   -0.0402    2.4854 H   0  0  0  0  0  0  0  0  0  0  0  0
   -2.0137    1.1083   -0.0465 H   0  0  0  0  0  0  0  0  0  0  0  0
   -0.8731    1.4499    1.2915 H   0  0  0  0  0  0  0  0  0  0  0  0
   -1.7334   -0.1107    1.2241 H   0  0  0  0  0  0  0  0  0  0  0  0
  1  2  1  0
  2  3  1  0
  3  8  2  0
  3  4  1  0
  4  5  2  0
  5  6  1  0
  6  7  2  0
  7  8  1  0
  8  9  1  0
  9 10  1  0
  1 11  1  0
  1 12  1  0
  1 13  1  0
  4 14  1  0
  5 15  1  0
  6 16  1  0
  7 17  1  0
 10 18  1  0
 10 19  1  0
 10 20  1  0
M  END
>  <_TriposChargeType>  (141) 
USER_CHARGES

>  <solvdG>  (141) 
-5.33

>  <fdG>  (141) 
-4.05

>  <fname>  (141) 
mobley_2613240

>  <cname>  (141) 
 1,2-dimethoxybenzene

>  <dataset>  (141) 
FreeSolv

$$$$
3-nitrooxypropyl nitrate
     RDKit          3D

 17 16  0  0  0  0  0  0  0  0999 V2000
    0.7769   -0.0127   -0.7752 C   0  0  0  0  0  0  0  0  0  0  0  0
    0.3977    0.9315   -1.9041 C   0  0  0  0  0  0  0  0  0  0  0  0
    0.2087    2.2343   -1.3695 O   0  0  0  0  0  0  0  0  0  0  0  0
   -0.1516    3.2036   -2.3467 N   0  0  0  0  0  4  0  0  0  0  0  0
   -0.2582    2.8237   -3.5150 O   0  0  0  0  0  0  0  0  0  0  0  0
   -0.3119    4.3278   -1.8698 O   0  0  0  0  0  1  0  0  0  0  0  0
    0.9970   -1.4335   -1.2704 C   0  0  0  0  0  0  0  0  0  0  0  0
    1.3484   -2.2752   -0.1803 O   0  0  0  0  0  0  0  0  0  0  0  0
    1.5734   -3.6286   -0.5564 N   0  0  0  0  0  4  0  0  0  0  0  0
    1.4442   -3.9190   -1.7479 O   0  0  0  0  0  0  0  0  0  0  0  0
    1.8767   -4.3464    0.3974 O   0  0  0  0  0  1  0  0  0  0  0  0
    1.6790    0.3515   -0.2672 H   0  0  0  0  0  0  0  0  0  0  0  0
    0.0000    0.0000    0.0000 H   0  0  0  0  0  0  0  0  0  0  0  0
    1.1895    0.9762   -2.6586 H   0  0  0  0  0  0  0  0  0  0  0  0
   -0.5337    0.6132   -2.3832 H   0  0  0  0  0  0  0  0  0  0  0  0
    1.8115   -1.4700   -2.0003 H   0  0  0  0  0  0  0  0  0  0  0  0
    0.0947   -1.8356   -1.7423 H   0  0  0  0  0  0  0  0  0  0  0  0
  1  2  1  0
  2  3  1  0
  3  4  1  0
  4  5  2  0
  4  6  1  0
  1  7  1  0
  7  8  1  0
  8  9  1  0
  9 10  2  0
  9 11  1  0
  1 12  1  0
  1 13  1  0
  2 14  1  0
  2 15  1  0
  7 16  1  0
  7 17  1  0
M  CHG  4   4   1   6  -1   9   1  11  -1
M  END
>  <_TriposChargeType>  (142) 
USER_CHARGES

>  <solvdG>  (142) 
-4.8

>  <fdG>  (142) 
-5.32

>  <fname>  (142) 
mobley_2636578

>  <cname>  (142) 
 3-nitrooxypropyl nitrate

>  <dataset>  (142) 
FreeSolv

$$$$
N,N,4-trimethylbenzamide
     RDKit          3D

 25 25  0  0  0  0  0  0  0  0999 V2000
    1.7464   -1.1742   -1.6533 C   0  0  0  0  0  0  0  0  0  0  0  0
    1.7433   -1.1586   -0.1618 C   0  0  0  0  0  0  0  0  0  0  0  0
    2.8018   -1.7299    0.5444 C   0  0  0  0  0  0  0  0  0  0  0  0
    2.7983   -1.7152    1.9392 C   0  0  0  0  0  0  0  0  0  0  0  0
    1.7361   -1.1292    2.6278 C   0  0  0  0  0  0  0  0  0  0  0  0
    0.6775   -0.5579    1.9215 C   0  0  0  0  0  0  0  0  0  0  0  0
    0.6811   -0.5726    0.5267 C   0  0  0  0  0  0  0  0  0  0  0  0
    1.7325   -1.1141    4.0821 C   0  0  0  0  0  0  0  0  0  0  0  0
    1.2025   -2.0769    4.6523 O   0  0  0  0  0  0  0  0  0  0  0  0
    2.3077   -0.0194    4.7531 N   0  0  0  0  0  0  0  0  0  0  0  0
    2.3284    0.0755    6.2059 C   0  0  0  0  0  0  0  0  0  0  0  0
    2.9229    1.0960    4.0371 C   0  0  0  0  0  0  0  0  0  0  0  0
    2.2396   -0.2755   -2.0361 H   0  0  0  0  0  0  0  0  0  0  0  0
    2.2722   -2.0561   -2.0339 H   0  0  0  0  0  0  0  0  0  0  0  0
    0.7247   -1.2120   -2.0459 H   0  0  0  0  0  0  0  0  0  0  0  0
    3.6335   -2.1884    0.0161 H   0  0  0  0  0  0  0  0  0  0  0  0
    3.6279   -2.1634    2.4797 H   0  0  0  0  0  0  0  0  0  0  0  0
   -0.1550   -0.0988    2.4481 H   0  0  0  0  0  0  0  0  0  0  0  0
   -0.1479   -0.1251   -0.0153 H   0  0  0  0  0  0  0  0  0  0  0  0
    3.2372   -0.3876    6.5808 H   0  0  0  0  0  0  0  0  0  0  0  0
    1.4606   -0.4382    6.6117 H   0  0  0  0  0  0  0  0  0  0  0  0
    2.3028    1.1223    6.4977 H   0  0  0  0  0  0  0  0  0  0  0  0
    2.1672    1.8508    3.8459 H   0  0  0  0  0  0  0  0  0  0  0  0
    3.3299    0.7329    3.0988 H   0  0  0  0  0  0  0  0  0  0  0  0
    3.7175    1.5131    4.6474 H   0  0  0  0  0  0  0  0  0  0  0  0
  1  2  1  0
  2  7  2  0
  2  3  1  0
  3  4  2  0
  4  5  1  0
  5  6  2  0
  6  7  1  0
  5  8  1  0
  8  9  2  0
  8 10  1  0
 10 11  1  0
 10 12  1  0
  1 13  1  0
  1 14  1  0
  1 15  1  0
  3 16  1  0
  4 17  1  0
  6 18  1  0
  7 19  1  0
 11 20  1  0
 11 21  1  0
 11 22  1  0
 12 23  1  0
 12 24  1  0
 12 25  1  0
M  END
>  <_TriposChargeType>  (143) 
USER_CHARGES

>  <solvdG>  (143) 
-9.76

>  <fdG>  (143) 
-8.08

>  <fname>  (143) 
mobley_2659552

>  <cname>  (143) 
 N,N-4-trimethylbenzamide

>  <dataset>  (143) 
FreeSolv

$$$$
3-hydroxybenzonitrile
     RDKit          3D

 14 14  0  0  0  0  0  0  0  0999 V2000
    1.8851   -1.0363   -0.1124 C   0  0  0  0  0  0  0  0  0  0  0  0
    2.9210   -1.6309    0.6081 C   0  0  0  0  0  0  0  0  0  0  0  0
    2.8783   -1.6520    2.0022 C   0  0  0  0  0  0  0  0  0  0  0  0
    1.7997   -1.0786    2.6757 C   0  0  0  0  0  0  0  0  0  0  0  0
    0.7638   -0.4841    1.9551 C   0  0  0  0  0  0  0  0  0  0  0  0
    0.8066   -0.4630    0.5610 C   0  0  0  0  0  0  0  0  0  0  0  0
   -0.2877    0.0773    2.6120 O   0  0  0  0  0  0  0  0  0  0  0  0
    3.9398   -2.2612    2.7397 C   0  0  0  0  0  0  0  0  0  0  0  0
    4.8029   -2.7566    3.3395 N   0  0  0  0  0  0  0  0  0  0  0  0
    1.9181   -1.0197   -1.1979 H   0  0  0  0  0  0  0  0  0  0  0  0
    3.7548   -2.0739    0.0686 H   0  0  0  0  0  0  0  0  0  0  0  0
    1.7585   -1.0893    3.7627 H   0  0  0  0  0  0  0  0  0  0  0  0
    0.0031   -0.0001   -0.0054 H   0  0  0  0  0  0  0  0  0  0  0  0
   -0.9220    0.4472    1.9775 H   0  0  0  0  0  0  0  0  0  0  0  0
  1  6  2  0
  1  2  1  0
  2  3  2  0
  3  4  1  0
  4  5  2  0
  5  6  1  0
  5  7  1  0
  3  8  1  0
  8  9  3  0
  1 10  1  0
  2 11  1  0
  4 12  1  0
  6 13  1  0
  7 14  1  0
M  END
>  <_TriposChargeType>  (144) 
USER_CHARGES

>  <solvdG>  (144) 
-9.65

>  <fdG>  (144) 
-7.74

>  <fname>  (144) 
mobley_2661134

>  <cname>  (144) 
 3-hydroxybenzonitrile

>  <dataset>  (144) 
FreeSolv

$$$$
1,3,5-trichlorobenzene
     RDKit          3D

 12 12  0  0  0  0  0  0  0  0999 V2000
    1.8851   -1.0363   -0.1124 C   0  0  0  0  0  0  0  0  0  0  0  0
    2.9210   -1.6309    0.6081 C   0  0  0  0  0  0  0  0  0  0  0  0
    2.8783   -1.6520    2.0022 C   0  0  0  0  0  0  0  0  0  0  0  0
    1.7997   -1.0786    2.6757 C   0  0  0  0  0  0  0  0  0  0  0  0
    0.7638   -0.4841    1.9551 C   0  0  0  0  0  0  0  0  0  0  0  0
    0.8066   -0.4630    0.5610 C   0  0  0  0  0  0  0  0  0  0  0  0
   -0.4710    0.2711   -0.3284 Cl  0  0  0  0  0  0  0  0  0  0  0  0
    1.7471   -1.1052    4.3957 Cl  0  0  0  0  0  0  0  0  0  0  0  0
    4.2525   -2.3376   -0.2223 Cl  0  0  0  0  0  0  0  0  0  0  0  0
    1.9177   -1.0202   -1.1999 H   0  0  0  0  0  0  0  0  0  0  0  0
    3.6864   -2.1158    2.5642 H   0  0  0  0  0  0  0  0  0  0  0  0
   -0.0777   -0.0368    2.4802 H   0  0  0  0  0  0  0  0  0  0  0  0
  1  6  2  0
  1  2  1  0
  2  3  2  0
  3  4  1  0
  4  5  2  0
  5  6  1  0
  6  7  1  0
  4  8  1  0
  2  9  1  0
  1 10  1  0
  3 11  1  0
  5 12  1  0
M  END
>  <_TriposChargeType>  (145) 
USER_CHARGES

>  <solvdG>  (145) 
-0.78

>  <fdG>  (145) 
0.33

>  <fname>  (145) 
mobley_2681549

>  <cname>  (145) 
 1,3,5-trichlorobenzene

>  <dataset>  (145) 
FreeSolv

$$$$
cyclohexane
     RDKit          3D

 18 18  0  0  0  0  0  0  0  0999 V2000
    0.3257    0.2271   -1.4209 C   0  0  0  0  0  0  0  0  0  0  0  0
   -1.0123   -0.3779   -1.0045 C   0  0  0  0  0  0  0  0  0  0  0  0
   -1.4192    0.0673    0.3976 C   0  0  0  0  0  0  0  0  0  0  0  0
   -0.3257   -0.2271    1.4209 C   0  0  0  0  0  0  0  0  0  0  0  0
    1.0123    0.3778    1.0046 C   0  0  0  0  0  0  0  0  0  0  0  0
    1.4192   -0.0672   -0.3976 C   0  0  0  0  0  0  0  0  0  0  0  0
    0.2153    1.3127   -1.5339 H   0  0  0  0  0  0  0  0  0  0  0  0
    0.6202   -0.1679   -2.3997 H   0  0  0  0  0  0  0  0  0  0  0  0
   -1.7873   -0.0886   -1.7230 H   0  0  0  0  0  0  0  0  0  0  0  0
   -0.9422   -1.4724   -1.0332 H   0  0  0  0  0  0  0  0  0  0  0  0
   -1.6319    1.1436    0.3908 H   0  0  0  0  0  0  0  0  0  0  0  0
   -2.3453   -0.4392    0.6917 H   0  0  0  0  0  0  0  0  0  0  0  0
   -0.6205    0.1679    2.3997 H   0  0  0  0  0  0  0  0  0  0  0  0
   -0.2152   -1.3126    1.5339 H   0  0  0  0  0  0  0  0  0  0  0  0
    0.9419    1.4721    1.0331 H   0  0  0  0  0  0  0  0  0  0  0  0
    1.7876    0.0884    1.7231 H   0  0  0  0  0  0  0  0  0  0  0  0
    2.3456    0.4395   -0.6909 H   0  0  0  0  0  0  0  0  0  0  0  0
    1.6316   -1.1434   -0.3907 H   0  0  0  0  0  0  0  0  0  0  0  0
  1  6  1  0
  1  2  1  0
  2  3  1  0
  3  4  1  0
  4  5  1  0
  5  6  1  0
  1  7  1  0
  1  8  1  0
  2  9  1  0
  2 10  1  0
  3 11  1  0
  3 12  1  0
  4 13  1  0
  4 14  1  0
  5 15  1  0
  5 16  1  0
  6 17  1  0
  6 18  1  0
M  END
>  <_TriposChargeType>  (146) 
USER_CHARGES

>  <solvdG>  (146) 
1.23

>  <fdG>  (146) 
1.5

>  <fname>  (146) 
mobley_2689721

>  <cname>  (146) 
 cyclohexane

>  <dataset>  (146) 
FreeSolv

$$$$
2-isobutylpyrazine
     RDKit          3D

 22 22  0  0  0  0  0  0  0  0999 V2000
    0.1917   -0.1014    0.9400 C   0  0  0  0  0  0  0  0  0  0  0  0
   -0.6434    0.6475    1.9816 C   0  0  0  0  0  0  0  0  0  0  0  0
   -0.0721    0.3940    3.3790 C   0  0  0  0  0  0  0  0  0  0  0  0
   -0.6900    2.1628    1.7040 C   0  0  0  0  0  0  0  0  0  0  0  0
   -1.2871    2.5197    0.3646 C   0  0  0  0  0  0  0  0  0  0  0  0
   -2.6408    2.7420    0.2397 C   0  0  0  0  0  0  0  0  0  0  0  0
   -3.2055    3.0613   -0.9417 N   0  0  0  0  0  0  0  0  0  0  0  0
   -2.3678    3.1503   -1.9938 C   0  0  0  0  0  0  0  0  0  0  0  0
   -1.0140    2.9287   -1.8689 C   0  0  0  0  0  0  0  0  0  0  0  0
   -0.4494    2.6091   -0.6875 N   0  0  0  0  0  0  0  0  0  0  0  0
   -0.1950    0.0620   -0.0717 H   0  0  0  0  0  0  0  0  0  0  0  0
    0.1965   -1.1786    1.1332 H   0  0  0  0  0  0  0  0  0  0  0  0
    1.2330    0.2378    0.9617 H   0  0  0  0  0  0  0  0  0  0  0  0
   -1.6618    0.2391    1.9586 H   0  0  0  0  0  0  0  0  0  0  0  0
   -0.6564    0.9220    4.1401 H   0  0  0  0  0  0  0  0  0  0  0  0
   -0.0812   -0.6735    3.6247 H   0  0  0  0  0  0  0  0  0  0  0  0
    0.9614    0.7496    3.4473 H   0  0  0  0  0  0  0  0  0  0  0  0
    0.3182    2.5893    1.7889 H   0  0  0  0  0  0  0  0  0  0  0  0
   -1.2868    2.6637    2.4783 H   0  0  0  0  0  0  0  0  0  0  0  0
   -3.3209    2.6706    1.0804 H   0  0  0  0  0  0  0  0  0  0  0  0
   -2.8217    3.4063   -2.9430 H   0  0  0  0  0  0  0  0  0  0  0  0
   -0.3409    3.0013   -2.7142 H   0  0  0  0  0  0  0  0  0  0  0  0
  1  2  1  0
  2  3  1  0
  2  4  1  0
  4  5  1  0
  5 10  2  0
  5  6  1  0
  6  7  2  0
  7  8  1  0
  8  9  2  0
  9 10  1  0
  1 11  1  0
  1 12  1  0
  1 13  1  0
  2 14  1  0
  3 15  1  0
  3 16  1  0
  3 17  1  0
  4 18  1  0
  4 19  1  0
  6 20  1  0
  8 21  1  0
  9 22  1  0
M  END
>  <_TriposChargeType>  (147) 
USER_CHARGES

>  <solvdG>  (147) 
-5.04

>  <fdG>  (147) 
-5.5

>  <fname>  (147) 
mobley_2693089

>  <cname>  (147) 
 2-isobutylpyrazine

>  <dataset>  (147) 
FreeSolv

$$$$
4-methylsulfonyl-2,6-dinitro-N,N-dipropyl-aniline
     RDKit          3D

 42 42  0  0  0  0  0  0  0  0999 V2000
    3.4481    3.6057   -0.0289 C   0  0  0  0  0  0  0  0  0  0  0  0
    3.6344    2.8445   -1.3338 C   0  0  0  0  0  0  0  0  0  0  0  0
    2.6189    1.7221   -1.5111 C   0  0  0  0  0  0  0  0  0  0  0  0
    2.8015    1.0088   -2.7448 N   0  0  0  0  0  0  0  0  0  0  0  0
    2.7100    1.7478   -4.0090 C   0  0  0  0  0  0  0  0  0  0  0  0
    1.3463    2.3797   -4.1792 C   0  0  0  0  0  0  0  0  0  0  0  0
    1.2058    3.1582   -5.4796 C   0  0  0  0  0  0  0  0  0  0  0  0
    3.0768   -0.3694   -2.7666 C   0  0  0  0  0  0  0  0  0  0  0  0
    4.3975   -0.8174   -2.7383 C   0  0  0  0  0  0  0  0  0  0  0  0
    4.6706   -2.1851   -2.7596 C   0  0  0  0  0  0  0  0  0  0  0  0
    3.6231   -3.1048   -2.8092 C   0  0  0  0  0  0  0  0  0  0  0  0
    2.3024   -2.6567   -2.8376 C   0  0  0  0  0  0  0  0  0  0  0  0
    2.0293   -1.2890   -2.8163 C   0  0  0  0  0  0  0  0  0  0  0  0
    0.6715   -0.8618   -2.8468 N   0  0  0  0  0  4  0  0  0  0  0  0
    0.1271   -0.6576   -3.9567 O   0  0  0  0  0  0  0  0  0  0  0  0
    0.0634   -0.7033   -1.7628 O   0  0  0  0  0  1  0  0  0  0  0  0
    3.9655   -4.8168   -2.8332 S   0  0  0  0  0  6  0  0  0  0  0  0
    5.2706   -5.0216   -2.2211 O   0  0  0  0  0  0  0  0  0  0  0  0
    2.8069   -5.5369   -2.3229 O   0  0  0  0  0  0  0  0  0  0  0  0
    4.1035   -5.2153   -4.5610 C   0  0  0  0  0  0  0  0  0  0  0  0
    5.4867    0.0974   -2.6863 N   0  0  0  0  0  4  0  0  0  0  0  0
    5.9176    0.4615   -1.5673 O   0  0  0  0  0  0  0  0  0  0  0  0
    5.9811    0.5107   -3.7611 O   0  0  0  0  0  1  0  0  0  0  0  0
    4.1909    4.4038    0.0690 H   0  0  0  0  0  0  0  0  0  0  0  0
    2.4540    4.0632    0.0016 H   0  0  0  0  0  0  0  0  0  0  0  0
    3.5385    2.9421    0.8366 H   0  0  0  0  0  0  0  0  0  0  0  0
    4.6428    2.4150   -1.3478 H   0  0  0  0  0  0  0  0  0  0  0  0
    3.5692    3.5471   -2.1730 H   0  0  0  0  0  0  0  0  0  0  0  0
    2.7219    0.9926   -0.7016 H   0  0  0  0  0  0  0  0  0  0  0  0
    1.5943    2.1068   -1.4947 H   0  0  0  0  0  0  0  0  0  0  0  0
    2.9059    1.0157   -4.7869 H   0  0  0  0  0  0  0  0  0  0  0  0
    3.5113    2.4801   -3.9925 H   0  0  0  0  0  0  0  0  0  0  0  0
    0.6013    1.5756   -4.1701 H   0  0  0  0  0  0  0  0  0  0  0  0
    1.1186    3.0427   -3.3361 H   0  0  0  0  0  0  0  0  0  0  0  0
    0.2078    3.5996   -5.5665 H   0  0  0  0  0  0  0  0  0  0  0  0
    1.9391    3.9703   -5.5134 H   0  0  0  0  0  0  0  0  0  0  0  0
    1.3759    2.5162   -6.3494 H   0  0  0  0  0  0  0  0  0  0  0  0
    5.6995   -2.5386   -2.7382 H   0  0  0  0  0  0  0  0  0  0  0  0
    1.4883   -3.3774   -2.8760 H   0  0  0  0  0  0  0  0  0  0  0  0
    4.3177   -6.2764   -4.6328 H   0  0  0  0  0  0  0  0  0  0  0  0
    3.1554   -4.9692   -5.0271 H   0  0  0  0  0  0  0  0  0  0  0  0
    4.9129   -4.6184   -4.9676 H   0  0  0  0  0  0  0  0  0  0  0  0
  1  2  1  0
  2  3  1  0
  3  4  1  0
  4  5  1  0
  5  6  1  0
  6  7  1  0
  4  8  1  0
  8 13  2  0
  8  9  1  0
  9 10  2  0
 10 11  1  0
 11 12  2  0
 12 13  1  0
 13 14  1  0
 14 15  2  0
 14 16  1  0
 11 17  1  0
 17 18  2  0
 17 19  2  0
 17 20  1  0
  9 21  1  0
 21 22  2  0
 21 23  1  0
  1 24  1  0
  1 25  1  0
  1 26  1  0
  2 27  1  0
  2 28  1  0
  3 29  1  0
  3 30  1  0
  5 31  1  0
  5 32  1  0
  6 33  1  0
  6 34  1  0
  7 35  1  0
  7 36  1  0
  7 37  1  0
 10 38  1  0
 12 39  1  0
 20 40  1  0
 20 41  1  0
 20 42  1  0
M  CHG  4  14   1  16  -1  21   1  23  -1
M  END
>  <_TriposChargeType>  (148) 
USER_CHARGES

>  <solvdG>  (148) 
-7.98

>  <fdG>  (148) 
-11.25

>  <fname>  (148) 
mobley_2725215

>  <cname>  (148) 
 nitralin

>  <dataset>  (148) 
FreeSolv

$$$$
1-pyrrolidin-1-ylethanone
     RDKit          3D

 19 19  0  0  0  0  0  0  0  0999 V2000
    0.1446   -2.7768    4.2009 C   0  0  0  0  0  0  0  0  0  0  0  0
   -0.8576   -2.3754    3.1485 C   0  0  0  0  0  0  0  0  0  0  0  0
   -2.0624   -2.3650    3.4059 O   0  0  0  0  0  0  0  0  0  0  0  0
   -0.3265   -2.0398    1.9165 N   0  0  0  0  0  0  0  0  0  0  0  0
    1.0860   -2.0286    1.5489 C   0  0  0  0  0  0  0  0  0  0  0  0
    1.0829   -1.8649    0.0355 C   0  0  0  0  0  0  0  0  0  0  0  0
   -0.1848   -1.0587   -0.2182 C   0  0  0  0  0  0  0  0  0  0  0  0
   -1.1613   -1.6371    0.7942 C   0  0  0  0  0  0  0  0  0  0  0  0
    0.3237   -3.8546    4.1628 H   0  0  0  0  0  0  0  0  0  0  0  0
   -0.2253   -2.5167    5.1966 H   0  0  0  0  0  0  0  0  0  0  0  0
    1.0930   -2.2567    4.0398 H   0  0  0  0  0  0  0  0  0  0  0  0
    1.5537   -1.1704    2.0433 H   0  0  0  0  0  0  0  0  0  0  0  0
    1.5856   -2.9456    1.8726 H   0  0  0  0  0  0  0  0  0  0  0  0
    1.9855   -1.3732   -0.3372 H   0  0  0  0  0  0  0  0  0  0  0  0
    1.0004   -2.8457   -0.4481 H   0  0  0  0  0  0  0  0  0  0  0  0
   -0.0000    0.0001   -0.0003 H   0  0  0  0  0  0  0  0  0  0  0  0
   -0.5460   -1.1401   -1.2469 H   0  0  0  0  0  0  0  0  0  0  0  0
   -1.9253   -0.9217    1.1127 H   0  0  0  0  0  0  0  0  0  0  0  0
   -1.6560   -2.5353    0.4084 H   0  0  0  0  0  0  0  0  0  0  0  0
  1  2  1  0
  2  3  2  0
  2  4  1  0
  4  8  1  0
  4  5  1  0
  5  6  1  0
  6  7  1  0
  7  8  1  0
  1  9  1  0
  1 10  1  0
  1 11  1  0
  5 12  1  0
  5 13  1  0
  6 14  1  0
  6 15  1  0
  7 16  1  0
  7 17  1  0
  8 18  1  0
  8 19  1  0
M  END
>  <_TriposChargeType>  (149) 
USER_CHARGES

>  <solvdG>  (149) 
-9.8

>  <fdG>  (149) 
-7.83

>  <fname>  (149) 
mobley_2725802

>  <cname>  (149) 
 1-pyrrolidin-1-ylethanone

>  <dataset>  (149) 
FreeSolv

$$$$
5-iodo-1H-pyrimidine-2,4-dione
     RDKit          3D

 12 12  0  0  0  0  0  0  0  0999 V2000
    0.6799    1.3319   -0.0633 C   0  0  0  0  0  0  0  0  0  0  0  0
   -0.4156    0.9696    0.6155 C   0  0  0  0  0  0  0  0  0  0  0  0
   -0.8893   -0.4427    0.5030 C   0  0  0  0  0  0  0  0  0  0  0  0
   -1.8849   -0.8532    1.0938 O   0  0  0  0  0  0  0  0  0  0  0  0
   -0.1141   -1.2509   -0.3219 N   0  0  0  0  0  0  0  0  0  0  0  0
    1.0277   -0.8642   -1.0264 C   0  0  0  0  0  0  0  0  0  0  0  0
    1.6640   -1.6403   -1.7397 O   0  0  0  0  0  0  0  0  0  0  0  0
    1.3819    0.4639   -0.8543 N   0  0  0  0  0  0  0  0  0  0  0  0
   -1.4495    2.2858    1.7932 I   0  0  0  0  0  0  0  0  0  0  0  0
    1.0863    2.3366   -0.0317 H   0  0  0  0  0  0  0  0  0  0  0  0
   -0.4078   -2.2186   -0.4217 H   0  0  0  0  0  0  0  0  0  0  0  0
    2.2028    0.8195   -1.3354 H   0  0  0  0  0  0  0  0  0  0  0  0
  1  8  1  0
  1  2  2  0
  2  3  1  0
  3  4  2  0
  3  5  1  0
  5  6  1  0
  6  7  2  0
  6  8  1  0
  2  9  1  0
  1 10  1  0
  5 11  1  0
  8 12  1  0
M  END
>  <_TriposChargeType>  (150) 
USER_CHARGES

>  <solvdG>  (150) 
-18.72

>  <fdG>  (150) 
-17.74

>  <fname>  (150) 
mobley_2727678

>  <cname>  (150) 
 5-iodouracil

>  <dataset>  (150) 
FreeSolv

$$$$
4-nitrophenol
     RDKit          3D

 15 15  0  0  0  0  0  0  0  0999 V2000
    1.8851   -1.0363   -0.1124 C   0  0  0  0  0  0  0  0  0  0  0  0
    2.9210   -1.6309    0.6081 C   0  0  0  0  0  0  0  0  0  0  0  0
    2.8783   -1.6520    2.0022 C   0  0  0  0  0  0  0  0  0  0  0  0
    1.7997   -1.0786    2.6757 C   0  0  0  0  0  0  0  0  0  0  0  0
    0.7638   -0.4841    1.9551 C   0  0  0  0  0  0  0  0  0  0  0  0
    0.8066   -0.4630    0.5610 C   0  0  0  0  0  0  0  0  0  0  0  0
   -0.2490    0.1403   -0.1729 N   0  0  0  0  0  4  0  0  0  0  0  0
   -0.1907    0.1485   -1.4262 O   0  0  0  0  0  0  0  0  0  0  0  0
   -1.2108    0.6486    0.4522 O   0  0  0  0  0  1  0  0  0  0  0  0
    3.8891   -2.2315    2.7057 O   0  0  0  0  0  0  0  0  0  0  0  0
    1.9301   -1.0269   -1.1986 H   0  0  0  0  0  0  0  0  0  0  0  0
    3.7585   -2.0763    0.0780 H   0  0  0  0  0  0  0  0  0  0  0  0
    1.7605   -1.0929    3.7614 H   0  0  0  0  0  0  0  0  0  0  0  0
   -0.0712   -0.0409    2.4924 H   0  0  0  0  0  0  0  0  0  0  0  0
    4.5618   -2.5827    2.1007 H   0  0  0  0  0  0  0  0  0  0  0  0
  1  6  2  0
  1  2  1  0
  2  3  2  0
  3  4  1  0
  4  5  2  0
  5  6  1  0
  6  7  1  0
  7  8  2  0
  7  9  1  0
  3 10  1  0
  1 11  1  0
  2 12  1  0
  4 13  1  0
  5 14  1  0
 10 15  1  0
M  CHG  2   7   1   9  -1
M  END
>  <_TriposChargeType>  (151) 
USER_CHARGES

>  <solvdG>  (151) 
-10.64

>  <fdG>  (151) 
-8.47

>  <fname>  (151) 
mobley_2751110

>  <cname>  (151) 
 4-nitrophenol

>  <dataset>  (151) 
FreeSolv

$$$$
ethoxybenzene
     RDKit          3D

 19 19  0  0  0  0  0  0  0  0999 V2000
    0.8495   -1.7229   -3.4870 C   0  0  0  0  0  0  0  0  0  0  0  0
    0.6771   -1.0300   -2.1521 C   0  0  0  0  0  0  0  0  0  0  0  0
    1.9270   -1.0156   -1.4726 O   0  0  0  0  0  0  0  0  0  0  0  0
    1.8851   -1.0363   -0.1124 C   0  0  0  0  0  0  0  0  0  0  0  0
    2.9210   -1.6309    0.6081 C   0  0  0  0  0  0  0  0  0  0  0  0
    2.8783   -1.6520    2.0022 C   0  0  0  0  0  0  0  0  0  0  0  0
    1.7997   -1.0786    2.6757 C   0  0  0  0  0  0  0  0  0  0  0  0
    0.7638   -0.4841    1.9551 C   0  0  0  0  0  0  0  0  0  0  0  0
    0.8066   -0.4630    0.5610 C   0  0  0  0  0  0  0  0  0  0  0  0
   -0.0953   -1.7513   -4.0368 H   0  0  0  0  0  0  0  0  0  0  0  0
    1.5979   -1.2059   -4.0965 H   0  0  0  0  0  0  0  0  0  0  0  0
    1.2072   -2.7483   -3.3460 H   0  0  0  0  0  0  0  0  0  0  0  0
   -0.0534   -1.5617   -1.5352 H   0  0  0  0  0  0  0  0  0  0  0  0
    0.3419    0.0016   -2.2954 H   0  0  0  0  0  0  0  0  0  0  0  0
    3.7642   -2.0784    0.0892 H   0  0  0  0  0  0  0  0  0  0  0  0
    3.6852   -2.1140    2.5634 H   0  0  0  0  0  0  0  0  0  0  0  0
    1.7671   -1.0935    3.7610 H   0  0  0  0  0  0  0  0  0  0  0  0
   -0.0756   -0.0370    2.4799 H   0  0  0  0  0  0  0  0  0  0  0  0
   -0.0034    0.0014    0.0052 H   0  0  0  0  0  0  0  0  0  0  0  0
  1  2  1  0
  2  3  1  0
  3  4  1  0
  4  9  2  0
  4  5  1  0
  5  6  2  0
  6  7  1  0
  7  8  2  0
  8  9  1  0
  1 10  1  0
  1 11  1  0
  1 12  1  0
  2 13  1  0
  2 14  1  0
  5 15  1  0
  6 16  1  0
  7 17  1  0
  8 18  1  0
  9 19  1  0
M  END
>  <_TriposChargeType>  (152) 
USER_CHARGES

>  <solvdG>  (152) 
-2.22

>  <fdG>  (152) 
-2.25

>  <fname>  (152) 
mobley_2763835

>  <cname>  (152) 
 ethoxybenzene

>  <dataset>  (152) 
FreeSolv

$$$$
1-methylpiperazine
     RDKit          3D

 19 19  0  0  0  0  0  0  0  0999 V2000
   -0.1859   -2.0442    4.0765 C   0  0  0  0  0  0  0  0  0  0  0  0
   -0.4223   -2.1203    2.6363 N   0  0  0  0  0  0  0  0  0  0  0  0
   -0.0739   -0.8523    1.9823 C   0  0  0  0  0  0  0  0  0  0  0  0
   -0.3124   -0.9378    0.4727 C   0  0  0  0  0  0  0  0  0  0  0  0
    0.4337   -2.0438   -0.1317 N   0  0  0  0  0  0  0  0  0  0  0  0
    0.0898   -3.3035    0.5317 C   0  0  0  0  0  0  0  0  0  0  0  0
    0.3304   -3.2322    2.0417 C   0  0  0  0  0  0  0  0  0  0  0  0
   -0.7513   -1.2134    4.5067 H   0  0  0  0  0  0  0  0  0  0  0  0
    0.8774   -1.8875    4.2772 H   0  0  0  0  0  0  0  0  0  0  0  0
   -0.5009   -2.9724    4.5608 H   0  0  0  0  0  0  0  0  0  0  0  0
   -0.6951   -0.0434    2.3853 H   0  0  0  0  0  0  0  0  0  0  0  0
    0.9746   -0.5879    2.1757 H   0  0  0  0  0  0  0  0  0  0  0  0
   -1.3838   -1.0514    0.2639 H   0  0  0  0  0  0  0  0  0  0  0  0
    0.0065    0.0001    0.0047 H   0  0  0  0  0  0  0  0  0  0  0  0
    0.2056   -2.1071   -1.1232 H   0  0  0  0  0  0  0  0  0  0  0  0
   -0.9568   -3.5614    0.3254 H   0  0  0  0  0  0  0  0  0  0  0  0
    0.7055   -4.1041    0.1074 H   0  0  0  0  0  0  0  0  0  0  0  0
    0.0083   -4.1802    2.4891 H   0  0  0  0  0  0  0  0  0  0  0  0
    1.4058   -3.1253    2.2389 H   0  0  0  0  0  0  0  0  0  0  0  0
  1  2  1  0
  2  7  1  0
  2  3  1  0
  3  4  1  0
  4  5  1  0
  5  6  1  0
  6  7  1  0
  1  8  1  0
  1  9  1  0
  1 10  1  0
  3 11  1  0
  3 12  1  0
  4 13  1  0
  4 14  1  0
  5 15  1  0
  6 16  1  0
  6 17  1  0
  7 18  1  0
  7 19  1  0
M  END
>  <_TriposChargeType>  (153) 
USER_CHARGES

>  <solvdG>  (153) 
-7.77

>  <fdG>  (153) 
-8.17

>  <fname>  (153) 
mobley_2771569

>  <cname>  (153) 
 1-methylpiperazine

>  <dataset>  (153) 
FreeSolv

$$$$
isoindoline-1,3-dione
     RDKit          3D

 16 17  0  0  0  0  0  0  0  0999 V2000
   -0.4087   -0.9494   -1.8988 C   0  0  0  0  0  0  0  0  0  0  0  0
   -0.1118   -0.9479   -0.5202 C   0  0  0  0  0  0  0  0  0  0  0  0
    0.0406   -2.1457    0.1841 C   0  0  0  0  0  0  0  0  0  0  0  0
   -0.1119   -3.3166   -0.5286 C   0  0  0  0  0  0  0  0  0  0  0  0
   -0.4040   -3.3182   -1.8860 C   0  0  0  0  0  0  0  0  0  0  0  0
   -0.5588   -2.1488   -2.6010 C   0  0  0  0  0  0  0  0  0  0  0  0
   -0.4965   -4.7098   -2.3265 C   0  0  0  0  0  0  0  0  0  0  0  0
   -0.7391   -5.0654   -3.4639 O   0  0  0  0  0  0  0  0  0  0  0  0
   -0.2546   -5.4684   -1.2055 N   0  0  0  0  0  0  0  0  0  0  0  0
   -0.0150   -4.7072   -0.0858 C   0  0  0  0  0  0  0  0  0  0  0  0
    0.2311   -5.0602    1.0516 O   0  0  0  0  0  0  0  0  0  0  0  0
   -0.5213   -0.0028   -2.4210 H   0  0  0  0  0  0  0  0  0  0  0  0
   -0.0005   -0.0001    0.0001 H   0  0  0  0  0  0  0  0  0  0  0  0
    0.2685   -2.1440    1.2436 H   0  0  0  0  0  0  0  0  0  0  0  0
   -0.7867   -2.1496   -3.6604 H   0  0  0  0  0  0  0  0  0  0  0  0
   -0.2532   -6.4822   -1.2046 H   0  0  0  0  0  0  0  0  0  0  0  0
  1  6  2  0
  1  2  1  0
  2  3  2  0
  3  4  1  0
  4 10  1  0
  4  5  2  0
  5  6  1  0
  5  7  1  0
  7  8  2  0
  7  9  1  0
  9 10  1  0
 10 11  2  0
  1 12  1  0
  2 13  1  0
  3 14  1  0
  6 15  1  0
  9 16  1  0
M  END
>  <_TriposChargeType>  (154) 
USER_CHARGES

>  <solvdG>  (154) 
-9.61

>  <fdG>  (154) 
-11.82

>  <fname>  (154) 
mobley_2782339

>  <cname>  (154) 
 phthalimide

>  <dataset>  (154) 
FreeSolv

$$$$
cyclopropane
     RDKit          3D

  9  9  0  0  0  0  0  0  0  0999 V2000
    0.5948   -0.7129    0.5570 C   0  0  0  0  0  0  0  0  0  0  0  0
    2.0779   -0.4929    0.6159 C   0  0  0  0  0  0  0  0  0  0  0  0
    1.5175   -1.6099   -0.2149 C   0  0  0  0  0  0  0  0  0  0  0  0
    0.0003    0.0003   -0.0001 H   0  0  0  0  0  0  0  0  0  0  0  0
    0.1102   -1.1218    1.4344 H   0  0  0  0  0  0  0  0  0  0  0  0
    2.4818    0.3680    0.0983 H   0  0  0  0  0  0  0  0  0  0  0  0
    2.5909   -0.7541    1.5330 H   0  0  0  0  0  0  0  0  0  0  0  0
    1.5446   -1.5009   -1.2918 H   0  0  0  0  0  0  0  0  0  0  0  0
    1.6540   -2.6227    0.1430 H   0  0  0  0  0  0  0  0  0  0  0  0
  1  3  1  0
  1  2  1  0
  2  3  1  0
  1  4  1  0
  1  5  1  0
  2  6  1  0
  2  7  1  0
  3  8  1  0
  3  9  1  0
M  END
>  <_TriposChargeType>  (155) 
USER_CHARGES

>  <solvdG>  (155) 
0.75

>  <fdG>  (155) 
2.48

>  <fname>  (155) 
mobley_2784376

>  <cname>  (155) 
 cyclopropane

>  <dataset>  (155) 
FreeSolv

$$$$
3-chloropyridine
     RDKit          3D

 11 11  0  0  0  0  0  0  0  0999 V2000
    1.6520   -0.6227    2.8997 C   0  0  0  0  0  0  0  0  0  0  0  0
    1.3879   -0.0684    1.6522 C   0  0  0  0  0  0  0  0  0  0  0  0
    0.2265   -0.4197    0.9733 C   0  0  0  0  0  0  0  0  0  0  0  0
   -0.6317   -1.3224    1.5803 C   0  0  0  0  0  0  0  0  0  0  0  0
   -0.4092   -1.8816    2.7908 N   0  0  0  0  0  0  0  0  0  0  0  0
    0.7299   -1.5161    3.4206 C   0  0  0  0  0  0  0  0  0  0  0  0
   -0.1322    0.2428   -0.5669 Cl  0  0  0  0  0  0  0  0  0  0  0  0
    2.5513   -0.3636    3.4468 H   0  0  0  0  0  0  0  0  0  0  0  0
    2.0951    0.6354    1.2214 H   0  0  0  0  0  0  0  0  0  0  0  0
   -1.5544   -1.6371    1.1018 H   0  0  0  0  0  0  0  0  0  0  0  0
    0.8889   -1.9765    4.3902 H   0  0  0  0  0  0  0  0  0  0  0  0
  1  6  2  0
  1  2  1  0
  2  3  2  0
  3  4  1  0
  4  5  2  0
  5  6  1  0
  3  7  1  0
  1  8  1  0
  2  9  1  0
  4 10  1  0
  6 11  1  0
M  END
>  <_TriposChargeType>  (156) 
USER_CHARGES

>  <solvdG>  (156) 
-4.01

>  <fdG>  (156) 
-2.77

>  <fname>  (156) 
mobley_2789243

>  <cname>  (156) 
 3-chloropyridine

>  <dataset>  (156) 
FreeSolv

$$$$
(E)-hex-2-enal
     RDKit          3D

 17 16  0  0  0  0  0  0  0  0999 V2000
    0.1585    1.1487    2.5260 C   0  0  0  0  0  0  0  0  0  0  0  0
   -0.1633    0.1124    1.4606 C   0  0  0  0  0  0  0  0  0  0  0  0
   -0.0929    0.7142    0.0569 C   0  0  0  0  0  0  0  0  0  0  0  0
   -0.4112   -0.3116   -0.9925 C   0  0  0  0  0  0  0  0  0  0  0  0
    0.4447   -0.6646   -1.9591 C   0  0  0  0  0  0  0  0  0  0  0  0
    0.0336   -1.6794   -2.9481 C   0  0  0  0  0  0  0  0  0  0  0  0
    0.7762   -2.0398   -3.8532 O   0  0  0  0  0  0  0  0  0  0  0  0
    0.1061    0.7104    3.5279 H   0  0  0  0  0  0  0  0  0  0  0  0
    1.1627    1.5603    2.3825 H   0  0  0  0  0  0  0  0  0  0  0  0
   -0.5574    1.9753    2.4790 H   0  0  0  0  0  0  0  0  0  0  0  0
   -1.1652   -0.2933    1.6470 H   0  0  0  0  0  0  0  0  0  0  0  0
    0.5430   -0.7222    1.5477 H   0  0  0  0  0  0  0  0  0  0  0  0
    0.9018    1.1457   -0.1098 H   0  0  0  0  0  0  0  0  0  0  0  0
   -0.8141    1.5355   -0.0317 H   0  0  0  0  0  0  0  0  0  0  0  0
   -1.3986   -0.7647   -0.9430 H   0  0  0  0  0  0  0  0  0  0  0  0
    1.4350   -0.2345   -2.0482 H   0  0  0  0  0  0  0  0  0  0  0  0
   -0.9801   -2.0967   -2.8285 H   0  0  0  0  0  0  0  0  0  0  0  0
  1  2  1  0
  2  3  1  0
  3  4  1  0
  4  5  2  0
  5  6  1  0
  6  7  2  0
  1  8  1  0
  1  9  1  0
  1 10  1  0
  2 11  1  0
  2 12  1  0
  3 13  1  0
  3 14  1  0
  4 15  1  0
  5 16  1  0
  6 17  1  0
M  END
>  <_TriposChargeType>  (157) 
USER_CHARGES

>  <solvdG>  (157) 
-3.68

>  <fdG>  (157) 
-3.12

>  <fname>  (157) 
mobley_2792521

>  <cname>  (157) 
 (2E)-hex-2-enal

>  <dataset>  (157) 
FreeSolv

$$$$
1-bromobutane
     RDKit          3D

 14 13  0  0  0  0  0  0  0  0999 V2000
   -0.7538    0.4800   -1.7634 C   0  0  0  0  0  0  0  0  0  0  0  0
    0.0333   -0.3376   -0.7515 C   0  0  0  0  0  0  0  0  0  0  0  0
   -0.0289    0.2854    0.6426 C   0  0  0  0  0  0  0  0  0  0  0  0
    0.7607   -0.5398    1.6444 C   0  0  0  0  0  0  0  0  0  0  0  0
    0.6573    0.2849    3.4046 Br  0  0  0  0  0  0  0  0  0  0  0  0
   -0.7036    0.0263   -2.7583 H   0  0  0  0  0  0  0  0  0  0  0  0
   -1.8062    0.5362   -1.4686 H   0  0  0  0  0  0  0  0  0  0  0  0
   -0.3648    1.5010   -1.8310 H   0  0  0  0  0  0  0  0  0  0  0  0
    1.0764   -0.4095   -1.0810 H   0  0  0  0  0  0  0  0  0  0  0  0
   -0.3689   -1.3571   -0.7221 H   0  0  0  0  0  0  0  0  0  0  0  0
    0.3665    1.3083    0.6051 H   0  0  0  0  0  0  0  0  0  0  0  0
   -1.0755    0.3636    0.9630 H   0  0  0  0  0  0  0  0  0  0  0  0
    1.8218   -0.5922    1.3860 H   0  0  0  0  0  0  0  0  0  0  0  0
    0.3594   -1.5516    1.7492 H   0  0  0  0  0  0  0  0  0  0  0  0
  1  2  1  0
  2  3  1  0
  3  4  1  0
  4  5  1  0
  1  6  1  0
  1  7  1  0
  1  8  1  0
  2  9  1  0
  2 10  1  0
  3 11  1  0
  3 12  1  0
  4 13  1  0
  4 14  1  0
M  END
>  <_TriposChargeType>  (158) 
USER_CHARGES

>  <solvdG>  (158) 
-0.4

>  <fdG>  (158) 
0.7

>  <fname>  (158) 
mobley_2802855

>  <cname>  (158) 
 1-bromobutane

>  <dataset>  (158) 
FreeSolv

$$$$
naphthalene
     RDKit          3D

 18 19  0  0  0  0  0  0  0  0999 V2000
   -0.4966   -2.0341    0.4940 C   0  0  0  0  0  0  0  0  0  0  0  0
    0.3500   -1.0275    0.0392 C   0  0  0  0  0  0  0  0  0  0  0  0
    1.6484   -1.3369   -0.3665 C   0  0  0  0  0  0  0  0  0  0  0  0
    2.1168   -2.6602   -0.3222 C   0  0  0  0  0  0  0  0  0  0  0  0
    3.4207   -2.9899   -0.7267 C   0  0  0  0  0  0  0  0  0  0  0  0
    3.8693   -4.3100   -0.6758 C   0  0  0  0  0  0  0  0  0  0  0  0
    3.0228   -5.3167   -0.2210 C   0  0  0  0  0  0  0  0  0  0  0  0
    1.7243   -5.0072    0.1848 C   0  0  0  0  0  0  0  0  0  0  0  0
    1.2560   -3.6839    0.1403 C   0  0  0  0  0  0  0  0  0  0  0  0
   -0.0479   -3.3542    0.5448 C   0  0  0  0  0  0  0  0  0  0  0  0
   -1.5075   -1.7927    0.8092 H   0  0  0  0  0  0  0  0  0  0  0  0
   -0.0002   -0.0001    0.0003 H   0  0  0  0  0  0  0  0  0  0  0  0
    2.2931   -0.5340   -0.7180 H   0  0  0  0  0  0  0  0  0  0  0  0
    4.0995   -2.2191   -1.0860 H   0  0  0  0  0  0  0  0  0  0  0  0
    4.8796   -4.5522   -0.9922 H   0  0  0  0  0  0  0  0  0  0  0  0
    3.3725   -6.3445   -0.1817 H   0  0  0  0  0  0  0  0  0  0  0  0
    1.0801   -5.8101    0.5370 H   0  0  0  0  0  0  0  0  0  0  0  0
   -0.7271   -4.1249    0.9034 H   0  0  0  0  0  0  0  0  0  0  0  0
  1 10  2  0
  1  2  1  0
  2  3  2  0
  3  4  1  0
  4  9  2  0
  4  5  1  0
  5  6  2  0
  6  7  1  0
  7  8  2  0
  8  9  1  0
  9 10  1  0
  1 11  1  0
  2 12  1  0
  3 13  1  0
  5 14  1  0
  6 15  1  0
  7 16  1  0
  8 17  1  0
 10 18  1  0
M  END
>  <_TriposChargeType>  (159) 
USER_CHARGES

>  <solvdG>  (159) 
-2.4

>  <fdG>  (159) 
-3.21

>  <fname>  (159) 
mobley_282648

>  <cname>  (159) 
 naphthalene

>  <dataset>  (159) 
FreeSolv

$$$$
pyrrole
     RDKit          3D

 10 10  0  0  0  0  0  0  0  0999 V2000
    0.2891    0.0196    1.0414 C   0  0  0  0  0  0  0  0  0  0  0  0
    1.5204    0.4727    1.5759 C   0  0  0  0  0  0  0  0  0  0  0  0
    1.4575    0.3171    2.9431 C   0  0  0  0  0  0  0  0  0  0  0  0
    0.2315   -0.2133    3.2493 N   0  0  0  0  0  0  0  0  0  0  0  0
   -0.4888   -0.3990    2.0983 C   0  0  0  0  0  0  0  0  0  0  0  0
   -0.0010    0.0003    0.0004 H   0  0  0  0  0  0  0  0  0  0  0  0
    2.3613    0.8687    1.0241 H   0  0  0  0  0  0  0  0  0  0  0  0
    2.1729    0.5363    3.7231 H   0  0  0  0  0  0  0  0  0  0  0  0
   -0.0916   -0.4341    4.1811 H   0  0  0  0  0  0  0  0  0  0  0  0
   -1.4869   -0.8126    2.1334 H   0  0  0  0  0  0  0  0  0  0  0  0
  1  5  2  0
  1  2  1  0
  2  3  2  0
  3  4  1  0
  4  5  1  0
  1  6  1  0
  2  7  1  0
  3  8  1  0
  4  9  1  0
  5 10  1  0
M  END
>  <_TriposChargeType>  (160) 
USER_CHARGES

>  <solvdG>  (160) 
-4.78

>  <fdG>  (160) 
-4.01

>  <fname>  (160) 
mobley_2837389

>  <cname>  (160) 
 pyrrole

>  <dataset>  (160) 
FreeSolv

$$$$
1,2,3,7-tetrachlorodibenzo-p-dioxin
     RDKit          3D

 22 24  0  0  0  0  0  0  0  0999 V2000
   -1.0039   -0.2568    0.3257 C   0  0  0  0  0  0  0  0  0  0  0  0
   -1.4367   -1.5819    0.2693 C   0  0  0  0  0  0  0  0  0  0  0  0
   -2.7266   -1.9051    0.6889 C   0  0  0  0  0  0  0  0  0  0  0  0
   -3.5799   -0.9097    1.1626 C   0  0  0  0  0  0  0  0  0  0  0  0
   -3.1487    0.4152    1.2196 C   0  0  0  0  0  0  0  0  0  0  0  0
   -1.8584    0.7400    0.8000 C   0  0  0  0  0  0  0  0  0  0  0  0
   -1.3203    2.3737    0.8635 Cl  0  0  0  0  0  0  0  0  0  0  0  0
   -4.8561   -1.1828    1.5855 O   0  0  0  0  0  0  0  0  0  0  0  0
   -5.2389   -2.4982    1.5123 C   0  0  0  0  0  0  0  0  0  0  0  0
   -6.5287   -2.8214    1.9320 C   0  0  0  0  0  0  0  0  0  0  0  0
   -6.9616   -4.1465    1.8755 C   0  0  0  0  0  0  0  0  0  0  0  0
   -6.1071   -5.1433    1.4010 C   0  0  0  0  0  0  0  0  0  0  0  0
   -4.8168   -4.8184    0.9815 C   0  0  0  0  0  0  0  0  0  0  0  0
   -4.3856   -3.4936    1.0385 C   0  0  0  0  0  0  0  0  0  0  0  0
   -3.1093   -3.2205    0.6157 O   0  0  0  0  0  0  0  0  0  0  0  0
   -3.7292   -6.0337    0.3825 Cl  0  0  0  0  0  0  0  0  0  0  0  0
   -6.6598   -6.7917    1.3344 Cl  0  0  0  0  0  0  0  0  0  0  0  0
   -8.5742   -4.4762    2.4110 Cl  0  0  0  0  0  0  0  0  0  0  0  0
    0.0028   -0.0139   -0.0054 H   0  0  0  0  0  0  0  0  0  0  0  0
   -0.7668   -2.3525   -0.1020 H   0  0  0  0  0  0  0  0  0  0  0  0
   -3.8195    1.1864    1.5899 H   0  0  0  0  0  0  0  0  0  0  0  0
   -7.1864   -2.0368    2.2994 H   0  0  0  0  0  0  0  0  0  0  0  0
  1  6  2  0
  1  2  1  0
  2  3  2  0
  3 15  1  0
  3  4  1  0
  4  5  2  0
  5  6  1  0
  6  7  1  0
  4  8  1  0
  8  9  1  0
  9 14  2  0
  9 10  1  0
 10 11  2  0
 11 12  1  0
 12 13  2  0
 13 14  1  0
 14 15  1  0
 13 16  1  0
 12 17  1  0
 11 18  1  0
  1 19  1  0
  2 20  1  0
  5 21  1  0
 10 22  1  0
M  END
>  <_TriposChargeType>  (161) 
USER_CHARGES

>  <solvdG>  (161) 
-3.84

>  <fdG>  (161) 
-2.66

>  <fname>  (161) 
mobley_2844990

>  <cname>  (161) 
 1,2,3,7-tetrachlorodibenzo-p-dioxin

>  <dataset>  (161) 
FreeSolv

$$$$
2,3,7,8-tetrachlorodibenzo-p-dioxin
     RDKit          3D

 22 24  0  0  0  0  0  0  0  0999 V2000
   -1.4367   -1.5819    0.2693 C   0  0  0  0  0  0  0  0  0  0  0  0
   -2.7266   -1.9051    0.6889 C   0  0  0  0  0  0  0  0  0  0  0  0
   -3.5799   -0.9097    1.1626 C   0  0  0  0  0  0  0  0  0  0  0  0
   -3.1487    0.4152    1.2196 C   0  0  0  0  0  0  0  0  0  0  0  0
   -1.8584    0.7400    0.8000 C   0  0  0  0  0  0  0  0  0  0  0  0
   -1.0039   -0.2568    0.3257 C   0  0  0  0  0  0  0  0  0  0  0  0
    0.6047    0.0878   -0.2067 Cl  0  0  0  0  0  0  0  0  0  0  0  0
   -1.3752    2.3976    0.8945 Cl  0  0  0  0  0  0  0  0  0  0  0  0
   -4.8561   -1.1828    1.5855 O   0  0  0  0  0  0  0  0  0  0  0  0
   -5.2389   -2.4982    1.5123 C   0  0  0  0  0  0  0  0  0  0  0  0
   -6.5287   -2.8214    1.9320 C   0  0  0  0  0  0  0  0  0  0  0  0
   -6.9616   -4.1465    1.8755 C   0  0  0  0  0  0  0  0  0  0  0  0
   -6.1071   -5.1433    1.4010 C   0  0  0  0  0  0  0  0  0  0  0  0
   -4.8168   -4.8184    0.9815 C   0  0  0  0  0  0  0  0  0  0  0  0
   -4.3856   -3.4936    1.0385 C   0  0  0  0  0  0  0  0  0  0  0  0
   -3.1093   -3.2205    0.6157 O   0  0  0  0  0  0  0  0  0  0  0  0
   -6.5903   -6.8009    1.3092 Cl  0  0  0  0  0  0  0  0  0  0  0  0
   -8.5702   -4.4909    2.4077 Cl  0  0  0  0  0  0  0  0  0  0  0  0
   -0.7789   -2.3666   -0.0973 H   0  0  0  0  0  0  0  0  0  0  0  0
   -3.8221    1.1837    1.5917 H   0  0  0  0  0  0  0  0  0  0  0  0
   -7.1865   -2.0380    2.3011 H   0  0  0  0  0  0  0  0  0  0  0  0
   -4.1439   -5.5876    0.6099 H   0  0  0  0  0  0  0  0  0  0  0  0
  1  6  2  0
  1  2  1  0
  2 16  1  0
  2  3  2  0
  3  4  1  0
  4  5  2  0
  5  6  1  0
  6  7  1  0
  5  8  1  0
  3  9  1  0
  9 10  1  0
 10 15  2  0
 10 11  1  0
 11 12  2  0
 12 13  1  0
 13 14  2  0
 14 15  1  0
 15 16  1  0
 13 17  1  0
 12 18  1  0
  1 19  1  0
  4 20  1  0
 11 21  1  0
 14 22  1  0
M  END
>  <_TriposChargeType>  (162) 
USER_CHARGES

>  <solvdG>  (162) 
-3.37

>  <fdG>  (162) 
-2.54

>  <fname>  (162) 
mobley_2845466

>  <cname>  (162) 
 2,3,7,8-tetrachlorodibenzo-p-dioxin

>  <dataset>  (162) 
FreeSolv

$$$$
2-hydroxybenzaldehyde
     RDKit          3D

 15 15  0  0  0  0  0  0  0  0999 V2000
    1.8851   -1.0363   -0.1124 C   0  0  0  0  0  0  0  0  0  0  0  0
    2.9210   -1.6309    0.6081 C   0  0  0  0  0  0  0  0  0  0  0  0
    2.8783   -1.6520    2.0022 C   0  0  0  0  0  0  0  0  0  0  0  0
    1.7997   -1.0786    2.6757 C   0  0  0  0  0  0  0  0  0  0  0  0
    0.7638   -0.4841    1.9551 C   0  0  0  0  0  0  0  0  0  0  0  0
    0.8066   -0.4630    0.5610 C   0  0  0  0  0  0  0  0  0  0  0  0
   -0.3712    0.1205    2.6384 C   0  0  0  0  0  0  0  0  0  0  0  0
   -1.3075    0.6561    2.0410 O   0  0  0  0  0  0  0  0  0  0  0  0
    1.7765   -1.1094    4.0380 O   0  0  0  0  0  0  0  0  0  0  0  0
    1.9186   -1.0199   -1.1979 H   0  0  0  0  0  0  0  0  0  0  0  0
    3.7608   -2.0772    0.0837 H   0  0  0  0  0  0  0  0  0  0  0  0
    3.6886   -2.1167    2.5573 H   0  0  0  0  0  0  0  0  0  0  0  0
    0.0053   -0.0026   -0.0114 H   0  0  0  0  0  0  0  0  0  0  0  0
   -0.3741    0.0873    3.7488 H   0  0  0  0  0  0  0  0  0  0  0  0
    2.5679   -1.5567    4.3761 H   0  0  0  0  0  0  0  0  0  0  0  0
  1  6  2  0
  1  2  1  0
  2  3  2  0
  3  4  1  0
  4  5  2  0
  5  6  1  0
  5  7  1  0
  7  8  2  0
  4  9  1  0
  1 10  1  0
  2 11  1  0
  3 12  1  0
  6 13  1  0
  7 14  1  0
  9 15  1  0
M  END
>  <_TriposChargeType>  (163) 
USER_CHARGES

>  <solvdG>  (163) 
-4.68

>  <fdG>  (163) 
-8.81

>  <fname>  (163) 
mobley_2850833

>  <cname>  (163) 
 2-hydroxybenzaldehyde

>  <dataset>  (163) 
FreeSolv

$$$$
styrene
     RDKit          3D

 16 16  0  0  0  0  0  0  0  0999 V2000
    1.3832   -0.0584   -2.3275 C   0  0  0  0  0  0  0  0  0  0  0  0
    1.9297   -1.0142   -1.5660 C   0  0  0  0  0  0  0  0  0  0  0  0
    1.8851   -1.0363   -0.1124 C   0  0  0  0  0  0  0  0  0  0  0  0
    2.9210   -1.6309    0.6081 C   0  0  0  0  0  0  0  0  0  0  0  0
    2.8783   -1.6520    2.0022 C   0  0  0  0  0  0  0  0  0  0  0  0
    1.7997   -1.0786    2.6757 C   0  0  0  0  0  0  0  0  0  0  0  0
    0.7638   -0.4841    1.9551 C   0  0  0  0  0  0  0  0  0  0  0  0
    0.8066   -0.4630    0.5610 C   0  0  0  0  0  0  0  0  0  0  0  0
    1.4754   -0.1157   -3.4079 H   0  0  0  0  0  0  0  0  0  0  0  0
    0.8522    0.7982   -1.9296 H   0  0  0  0  0  0  0  0  0  0  0  0
    2.4658   -1.8133   -2.0739 H   0  0  0  0  0  0  0  0  0  0  0  0
    3.7685   -2.0819    0.0975 H   0  0  0  0  0  0  0  0  0  0  0  0
    3.6847   -2.1151    2.5634 H   0  0  0  0  0  0  0  0  0  0  0  0
    1.7663   -1.0951    3.7611 H   0  0  0  0  0  0  0  0  0  0  0  0
   -0.0759   -0.0376    2.4796 H   0  0  0  0  0  0  0  0  0  0  0  0
   -0.0085    0.0041    0.0133 H   0  0  0  0  0  0  0  0  0  0  0  0
  1  2  2  3
  2  3  1  0
  3  8  2  0
  3  4  1  0
  4  5  2  0
  5  6  1  0
  6  7  2  0
  7  8  1  0
  1  9  1  0
  1 10  1  0
  2 11  1  0
  4 12  1  0
  5 13  1  0
  6 14  1  0
  7 15  1  0
  8 16  1  0
M  END
>  <_TriposChargeType>  (164) 
USER_CHARGES

>  <solvdG>  (164) 
-1.24

>  <fdG>  (164) 
-1.08

>  <fname>  (164) 
mobley_2859600

>  <cname>  (164) 
 styrene

>  <dataset>  (164) 
FreeSolv

$$$$
(2R)-pentan-2-ol
     RDKit          3D

 18 17  0  0  0  0  0  0  0  0999 V2000
   -0.3307    0.7615   -0.7600 C   0  0  0  0  0  0  0  0  0  0  0  0
    0.1199    0.3162   -2.1425 C   0  0  0  0  0  0  0  0  0  0  0  0
   -0.5207   -1.0174   -2.5371 C   0  0  0  0  0  0  0  0  0  0  0  0
   -0.0767   -1.4806   -3.9284 C   0  0  1  0  0  0  0  0  0  0  0  0
    1.0108   -1.6100   -3.9488 H   0  0  0  0  0  0  0  0  0  0  0  0
   -0.7421   -2.7935   -4.3187 C   0  0  0  0  0  0  0  0  0  0  0  0
   -0.4070   -0.4938   -4.9021 O   0  0  0  0  0  0  0  0  0  0  0  0
    0.1379    1.7152   -0.4976 H   0  0  0  0  0  0  0  0  0  0  0  0
   -0.0508    0.0251    0.0001 H   0  0  0  0  0  0  0  0  0  0  0  0
   -1.4166    0.8956   -0.7257 H   0  0  0  0  0  0  0  0  0  0  0  0
   -0.1434    1.0927   -2.8696 H   0  0  0  0  0  0  0  0  0  0  0  0
    1.2119    0.2202   -2.1503 H   0  0  0  0  0  0  0  0  0  0  0  0
   -0.2591   -1.7818   -1.7954 H   0  0  0  0  0  0  0  0  0  0  0  0
   -1.6117   -0.9003   -2.5183 H   0  0  0  0  0  0  0  0  0  0  0  0
   -0.4195   -3.1177   -5.3145 H   0  0  0  0  0  0  0  0  0  0  0  0
   -0.4555   -3.5880   -3.6213 H   0  0  0  0  0  0  0  0  0  0  0  0
   -1.8326   -2.7029   -4.3159 H   0  0  0  0  0  0  0  0  0  0  0  0
   -0.1053   -0.8376   -5.7573 H   0  0  0  0  0  0  0  0  0  0  0  0
  1  2  1  0
  2  3  1  0
  3  4  1  0
  4  5  1  1
  4  6  1  0
  4  7  1  0
  1  8  1  0
  1  9  1  0
  1 10  1  0
  2 11  1  0
  2 12  1  0
  3 13  1  0
  3 14  1  0
  6 15  1  0
  6 16  1  0
  6 17  1  0
  7 18  1  0
M  END
>  <_TriposChargeType>  (165) 
USER_CHARGES

>  <solvdG>  (165) 
-4.39

>  <fdG>  (165) 
-2.94

>  <fname>  (165) 
mobley_2864987

>  <cname>  (165) 
 pentan-2-ol

>  <dataset>  (165) 
FreeSolv

$$$$
isobutyl nitrate
     RDKit          3D

 17 16  0  0  0  0  0  0  0  0999 V2000
    0.9983   -0.3578   -0.2742 C   0  0  0  0  0  0  0  0  0  0  0  0
    1.8182    0.7470   -0.9439 C   0  0  0  0  0  0  0  0  0  0  0  0
    1.1578    1.1798   -2.2511 C   0  0  0  0  0  0  0  0  0  0  0  0
    1.9991    1.9493   -0.0132 C   0  0  0  0  0  0  0  0  0  0  0  0
    2.6754    1.5475    1.1709 O   0  0  0  0  0  0  0  0  0  0  0  0
    2.8849    2.6095    2.0939 N   0  0  0  0  0  4  0  0  0  0  0  0
    2.4720    3.7284    1.7804 O   0  0  0  0  0  0  0  0  0  0  0  0
    3.4716    2.2476    3.1146 O   0  0  0  0  0  1  0  0  0  0  0  0
    1.4668   -0.6730    0.6644 H   0  0  0  0  0  0  0  0  0  0  0  0
    0.9144   -1.2373   -0.9218 H   0  0  0  0  0  0  0  0  0  0  0  0
   -0.0135   -0.0122   -0.0385 H   0  0  0  0  0  0  0  0  0  0  0  0
    2.8075    0.3294   -1.1709 H   0  0  0  0  0  0  0  0  0  0  0  0
    1.7384    1.9708   -2.7374 H   0  0  0  0  0  0  0  0  0  0  0  0
    0.1511    1.5698   -2.0675 H   0  0  0  0  0  0  0  0  0  0  0  0
    1.0744    0.3418   -2.9516 H   0  0  0  0  0  0  0  0  0  0  0  0
    2.6000    2.7249   -0.4995 H   0  0  0  0  0  0  0  0  0  0  0  0
    1.0323    2.3812    0.2672 H   0  0  0  0  0  0  0  0  0  0  0  0
  1  2  1  0
  2  3  1  0
  2  4  1  0
  4  5  1  0
  5  6  1  0
  6  7  2  0
  6  8  1  0
  1  9  1  0
  1 10  1  0
  1 11  1  0
  2 12  1  0
  3 13  1  0
  3 14  1  0
  3 15  1  0
  4 16  1  0
  4 17  1  0
M  CHG  2   6   1   8  -1
M  END
>  <_TriposChargeType>  (166) 
USER_CHARGES

>  <solvdG>  (166) 
-1.88

>  <fdG>  (166) 
-1.83

>  <fname>  (166) 
mobley_2881590

>  <cname>  (166) 
 isobutyl nitrate

>  <dataset>  (166) 
FreeSolv

$$$$
2-acetoxybenzoic acid
     RDKit          3D

 21 21  0  0  0  0  0  0  0  0999 V2000
    1.4681   -2.0387   -3.5392 C   0  0  0  0  0  0  0  0  0  0  0  0
    1.3503   -2.1438   -2.0476 C   0  0  0  0  0  0  0  0  0  0  0  0
    0.8137   -3.0759   -1.4636 O   0  0  0  0  0  0  0  0  0  0  0  0
    1.9455   -1.0259   -1.4740 O   0  0  0  0  0  0  0  0  0  0  0  0
    1.8851   -1.0363   -0.1124 C   0  0  0  0  0  0  0  0  0  0  0  0
    2.9210   -1.6309    0.6081 C   0  0  0  0  0  0  0  0  0  0  0  0
    2.8783   -1.6520    2.0022 C   0  0  0  0  0  0  0  0  0  0  0  0
    1.7997   -1.0786    2.6757 C   0  0  0  0  0  0  0  0  0  0  0  0
    0.7638   -0.4841    1.9551 C   0  0  0  0  0  0  0  0  0  0  0  0
    0.8066   -0.4630    0.5610 C   0  0  0  0  0  0  0  0  0  0  0  0
   -0.2853    0.1628   -0.1719 C   0  0  0  0  0  0  0  0  0  0  0  0
   -0.1830    0.7168   -1.2701 O   0  0  0  0  0  0  0  0  0  0  0  0
   -1.4709    0.0757    0.4897 O   0  0  0  0  0  0  0  0  0  0  0  0
    0.5972   -1.5173   -3.9443 H   0  0  0  0  0  0  0  0  0  0  0  0
    1.5043   -3.0431   -3.9710 H   0  0  0  0  0  0  0  0  0  0  0  0
    2.3895   -1.5129   -3.8019 H   0  0  0  0  0  0  0  0  0  0  0  0
    3.7642   -2.0794    0.0899 H   0  0  0  0  0  0  0  0  0  0  0  0
    3.6848   -2.1149    2.5633 H   0  0  0  0  0  0  0  0  0  0  0  0
    1.7665   -1.0952    3.7611 H   0  0  0  0  0  0  0  0  0  0  0  0
   -0.0715   -0.0407    2.4911 H   0  0  0  0  0  0  0  0  0  0  0  0
   -2.2134    0.4937    0.0036 H   0  0  0  0  0  0  0  0  0  0  0  0
  1  2  1  0
  2  3  2  0
  2  4  1  0
  4  5  1  0
  5 10  2  0
  5  6  1  0
  6  7  2  0
  7  8  1  0
  8  9  2  0
  9 10  1  0
 10 11  1  0
 11 12  2  0
 11 13  1  0
  1 14  1  0
  1 15  1  0
  1 16  1  0
  6 17  1  0
  7 18  1  0
  8 19  1  0
  9 20  1  0
 13 21  1  0
M  END
>  <_TriposChargeType>  (167) 
USER_CHARGES

>  <solvdG>  (167) 
-9.94

>  <fdG>  (167) 
-9.4

>  <fname>  (167) 
mobley_2913224

>  <cname>  (167) 
 acetylsalicylic acid

>  <dataset>  (167) 
FreeSolv

$$$$
4-ethylphenol
     RDKit          3D

 19 19  0  0  0  0  0  0  0  0999 V2000
    1.2633   -2.2422   -2.2061 C   0  0  0  0  0  0  0  0  0  0  0  0
    1.9293   -1.0151   -1.6028 C   0  0  0  0  0  0  0  0  0  0  0  0
    1.8851   -1.0363   -0.1124 C   0  0  0  0  0  0  0  0  0  0  0  0
    2.9210   -1.6309    0.6081 C   0  0  0  0  0  0  0  0  0  0  0  0
    2.8783   -1.6520    2.0022 C   0  0  0  0  0  0  0  0  0  0  0  0
    1.7997   -1.0786    2.6757 C   0  0  0  0  0  0  0  0  0  0  0  0
    0.7638   -0.4841    1.9551 C   0  0  0  0  0  0  0  0  0  0  0  0
    0.8066   -0.4630    0.5610 C   0  0  0  0  0  0  0  0  0  0  0  0
    1.7576   -1.1000    4.0359 O   0  0  0  0  0  0  0  0  0  0  0  0
    1.3010   -2.2172   -3.3004 H   0  0  0  0  0  0  0  0  0  0  0  0
    0.2124   -2.2892   -1.9040 H   0  0  0  0  0  0  0  0  0  0  0  0
    1.7533   -3.1638   -1.8740 H   0  0  0  0  0  0  0  0  0  0  0  0
    1.4384   -0.1072   -1.9739 H   0  0  0  0  0  0  0  0  0  0  0  0
    2.9711   -0.9553   -1.9405 H   0  0  0  0  0  0  0  0  0  0  0  0
    3.7658   -2.0790    0.0917 H   0  0  0  0  0  0  0  0  0  0  0  0
    3.6884   -2.1165    2.5581 H   0  0  0  0  0  0  0  0  0  0  0  0
   -0.0791   -0.0355    2.4742 H   0  0  0  0  0  0  0  0  0  0  0  0
   -0.0046    0.0033    0.0079 H   0  0  0  0  0  0  0  0  0  0  0  0
    0.9506   -0.6650    4.3543 H   0  0  0  0  0  0  0  0  0  0  0  0
  1  2  1  0
  2  3  1  0
  3  8  2  0
  3  4  1  0
  4  5  2  0
  5  6  1  0
  6  7  2  0
  7  8  1  0
  6  9  1  0
  1 10  1  0
  1 11  1  0
  1 12  1  0
  2 13  1  0
  2 14  1  0
  4 15  1  0
  5 16  1  0
  7 17  1  0
  8 18  1  0
  9 19  1  0
M  END
>  <_TriposChargeType>  (168) 
USER_CHARGES

>  <solvdG>  (168) 
-6.13

>  <fdG>  (168) 
-5.45

>  <fname>  (168) 
mobley_2923700

>  <cname>  (168) 
 4-ethylphenol

>  <dataset>  (168) 
FreeSolv

$$$$
p-cresol
     RDKit          3D

 16 16  0  0  0  0  0  0  0  0999 V2000
    1.9293   -1.0151   -1.6028 C   0  0  0  0  0  0  0  0  0  0  0  0
    1.8851   -1.0363   -0.1124 C   0  0  0  0  0  0  0  0  0  0  0  0
    2.9210   -1.6309    0.6081 C   0  0  0  0  0  0  0  0  0  0  0  0
    2.8783   -1.6520    2.0022 C   0  0  0  0  0  0  0  0  0  0  0  0
    1.7997   -1.0786    2.6757 C   0  0  0  0  0  0  0  0  0  0  0  0
    0.7638   -0.4841    1.9551 C   0  0  0  0  0  0  0  0  0  0  0  0
    0.8066   -0.4630    0.5610 C   0  0  0  0  0  0  0  0  0  0  0  0
    1.7576   -1.1000    4.0359 O   0  0  0  0  0  0  0  0  0  0  0  0
    2.4361   -0.1094   -1.9495 H   0  0  0  0  0  0  0  0  0  0  0  0
    2.4622   -1.8896   -1.9906 H   0  0  0  0  0  0  0  0  0  0  0  0
    0.9187   -1.0388   -2.0241 H   0  0  0  0  0  0  0  0  0  0  0  0
    3.7658   -2.0790    0.0917 H   0  0  0  0  0  0  0  0  0  0  0  0
    3.6884   -2.1165    2.5581 H   0  0  0  0  0  0  0  0  0  0  0  0
   -0.0791   -0.0355    2.4742 H   0  0  0  0  0  0  0  0  0  0  0  0
   -0.0046    0.0033    0.0079 H   0  0  0  0  0  0  0  0  0  0  0  0
    0.9506   -0.6650    4.3543 H   0  0  0  0  0  0  0  0  0  0  0  0
  1  2  1  0
  2  7  2  0
  2  3  1  0
  3  4  2  0
  4  5  1  0
  5  6  2  0
  6  7  1  0
  5  8  1  0
  1  9  1  0
  1 10  1  0
  1 11  1  0
  3 12  1  0
  4 13  1  0
  6 14  1  0
  7 15  1  0
  8 16  1  0
M  END
>  <_TriposChargeType>  (169) 
USER_CHARGES

>  <solvdG>  (169) 
-6.13

>  <fdG>  (169) 
-5.58

>  <fname>  (169) 
mobley_2925352

>  <cname>  (169) 
 p-cresol

>  <dataset>  (169) 
FreeSolv

$$$$
3-methylbutanoic acid
     RDKit          3D

 17 16  0  0  0  0  0  0  0  0999 V2000
    1.0711    0.0457    1.7142 C   0  0  0  0  0  0  0  0  0  0  0  0
    0.5338   -0.3162    0.3282 C   0  0  0  0  0  0  0  0  0  0  0  0
    1.4318    0.2953   -0.7503 C   0  0  0  0  0  0  0  0  0  0  0  0
   -0.9198    0.1609    0.1859 C   0  0  0  0  0  0  0  0  0  0  0  0
   -1.8485   -0.4578    1.2039 C   0  0  0  0  0  0  0  0  0  0  0  0
   -1.7292   -1.5629    1.7112 O   0  0  0  0  0  0  0  0  0  0  0  0
   -2.8426    0.4118    1.5188 O   0  0  0  0  0  0  0  0  0  0  0  0
    0.4405   -0.3837    2.5001 H   0  0  0  0  0  0  0  0  0  0  0  0
    1.1013    1.1312    1.8586 H   0  0  0  0  0  0  0  0  0  0  0  0
    2.0855   -0.3433    1.8522 H   0  0  0  0  0  0  0  0  0  0  0  0
    0.5715   -1.4082    0.2266 H   0  0  0  0  0  0  0  0  0  0  0  0
    1.0691    0.0510   -1.7547 H   0  0  0  0  0  0  0  0  0  0  0  0
    1.4583    1.3863   -0.6583 H   0  0  0  0  0  0  0  0  0  0  0  0
    2.4608   -0.0675   -0.6654 H   0  0  0  0  0  0  0  0  0  0  0  0
   -1.2895   -0.0739   -0.8193 H   0  0  0  0  0  0  0  0  0  0  0  0
   -0.9743    1.2466    0.3280 H   0  0  0  0  0  0  0  0  0  0  0  0
   -2.7727    1.2467    1.0086 H   0  0  0  0  0  0  0  0  0  0  0  0
  1  2  1  0
  2  3  1  0
  2  4  1  0
  4  5  1  0
  5  6  2  0
  5  7  1  0
  1  8  1  0
  1  9  1  0
  1 10  1  0
  2 11  1  0
  3 12  1  0
  3 13  1  0
  3 14  1  0
  4 15  1  0
  4 16  1  0
  7 17  1  0
M  END
>  <_TriposChargeType>  (170) 
USER_CHARGES

>  <solvdG>  (170) 
-6.09

>  <fdG>  (170) 
-8.84

>  <fname>  (170) 
mobley_2929847

>  <cname>  (170) 
 3-methylbutanoic acid

>  <dataset>  (170) 
FreeSolv

$$$$
N-propylpropan-1-amine
     RDKit          3D

 22 21  0  0  0  0  0  0  0  0999 V2000
    1.1129    2.1047    0.4933 C   0  0  0  0  0  0  0  0  0  0  0  0
    1.3143    1.3533   -0.8149 C   0  0  0  0  0  0  0  0  0  0  0  0
    2.6189    1.7221   -1.5111 C   0  0  0  0  0  0  0  0  0  0  0  0
    2.8015    1.0088   -2.7448 N   0  0  0  0  0  0  0  0  0  0  0  0
    4.0584    1.3745   -3.3999 C   0  0  0  0  0  0  0  0  0  0  0  0
    4.2453    0.6200   -4.6989 C   0  0  0  0  0  0  0  0  0  0  0  0
    5.5427    0.9723   -5.4128 C   0  0  0  0  0  0  0  0  0  0  0  0
    0.1691    1.8188    0.9685 H   0  0  0  0  0  0  0  0  0  0  0  0
    1.9257    1.8736    1.1894 H   0  0  0  0  0  0  0  0  0  0  0  0
    1.1050    3.1875    0.3345 H   0  0  0  0  0  0  0  0  0  0  0  0
    0.4780    1.5853   -1.4845 H   0  0  0  0  0  0  0  0  0  0  0  0
    1.2839    0.2749   -0.6192 H   0  0  0  0  0  0  0  0  0  0  0  0
    2.6247    2.7891   -1.7547 H   0  0  0  0  0  0  0  0  0  0  0  0
    3.4829    1.5137   -0.8723 H   0  0  0  0  0  0  0  0  0  0  0  0
    2.0303    1.2123   -3.3908 H   0  0  0  0  0  0  0  0  0  0  0  0
    4.8419    1.1298   -2.6875 H   0  0  0  0  0  0  0  0  0  0  0  0
    4.0285    2.4510   -3.5446 H   0  0  0  0  0  0  0  0  0  0  0  0
    4.2523   -0.4516   -4.4681 H   0  0  0  0  0  0  0  0  0  0  0  0
    3.4015    0.8007   -5.3754 H   0  0  0  0  0  0  0  0  0  0  0  0
    5.6426    0.4084   -6.3457 H   0  0  0  0  0  0  0  0  0  0  0  0
    5.5596    2.0389   -5.6587 H   0  0  0  0  0  0  0  0  0  0  0  0
    6.4138    0.7589   -4.7857 H   0  0  0  0  0  0  0  0  0  0  0  0
  1  2  1  0
  2  3  1  0
  3  4  1  0
  4  5  1  0
  5  6  1  0
  6  7  1  0
  1  8  1  0
  1  9  1  0
  1 10  1  0
  2 11  1  0
  2 12  1  0
  3 13  1  0
  3 14  1  0
  4 15  1  0
  5 16  1  0
  5 17  1  0
  6 18  1  0
  6 19  1  0
  7 20  1  0
  7 21  1  0
  7 22  1  0
M  END
>  <_TriposChargeType>  (171) 
USER_CHARGES

>  <solvdG>  (171) 
-3.65

>  <fdG>  (171) 
-2.23

>  <fname>  (171) 
mobley_2958326

>  <cname>  (171) 
 N-propylpropan-1-amine

>  <dataset>  (171) 
FreeSolv

$$$$
1,2,3,4,7,8-hexachlorodibenzo-p-dioxin
     RDKit          3D

 22 24  0  0  0  0  0  0  0  0999 V2000
   -1.4367   -1.5819    0.2693 C   0  0  0  0  0  0  0  0  0  0  0  0
   -2.7266   -1.9051    0.6889 C   0  0  0  0  0  0  0  0  0  0  0  0
   -3.5799   -0.9097    1.1626 C   0  0  0  0  0  0  0  0  0  0  0  0
   -3.1487    0.4152    1.2196 C   0  0  0  0  0  0  0  0  0  0  0  0
   -1.8584    0.7400    0.8000 C   0  0  0  0  0  0  0  0  0  0  0  0
   -1.0039   -0.2568    0.3257 C   0  0  0  0  0  0  0  0  0  0  0  0
    0.6055    0.0871   -0.2048 Cl  0  0  0  0  0  0  0  0  0  0  0  0
   -1.3753    2.3976    0.8910 Cl  0  0  0  0  0  0  0  0  0  0  0  0
   -4.8561   -1.1828    1.5855 O   0  0  0  0  0  0  0  0  0  0  0  0
   -5.2389   -2.4982    1.5123 C   0  0  0  0  0  0  0  0  0  0  0  0
   -4.3856   -3.4936    1.0385 C   0  0  0  0  0  0  0  0  0  0  0  0
   -4.8168   -4.8184    0.9815 C   0  0  0  0  0  0  0  0  0  0  0  0
   -6.1071   -5.1433    1.4010 C   0  0  0  0  0  0  0  0  0  0  0  0
   -6.9616   -4.1465    1.8755 C   0  0  0  0  0  0  0  0  0  0  0  0
   -6.5287   -2.8214    1.9320 C   0  0  0  0  0  0  0  0  0  0  0  0
   -7.5649   -1.5539    2.5153 Cl  0  0  0  0  0  0  0  0  0  0  0  0
   -8.5737   -4.5509    2.3987 Cl  0  0  0  0  0  0  0  0  0  0  0  0
   -6.6458   -6.7987    1.3310 Cl  0  0  0  0  0  0  0  0  0  0  0  0
   -3.7248   -6.0327    0.3864 Cl  0  0  0  0  0  0  0  0  0  0  0  0
   -3.1093   -3.2205    0.6157 O   0  0  0  0  0  0  0  0  0  0  0  0
   -0.7790   -2.3656   -0.0995 H   0  0  0  0  0  0  0  0  0  0  0  0
   -3.8229    1.1835    1.5908 H   0  0  0  0  0  0  0  0  0  0  0  0
  1  6  2  0
  1  2  1  0
  2 20  1  0
  2  3  2  0
  3  4  1  0
  4  5  2  0
  5  6  1  0
  6  7  1  0
  5  8  1  0
  3  9  1  0
  9 10  1  0
 10 15  2  0
 10 11  1  0
 11 12  2  0
 12 13  1  0
 13 14  2  0
 14 15  1  0
 15 16  1  0
 14 17  1  0
 13 18  1  0
 12 19  1  0
 11 20  1  0
  1 21  1  0
  4 22  1  0
M  END
>  <_TriposChargeType>  (172) 
USER_CHARGES

>  <solvdG>  (172) 
-3.71

>  <fdG>  (172) 
-1.88

>  <fname>  (172) 
mobley_2960202

>  <cname>  (172) 
 1,2,3,4,7,8-hexachlorodibenzo-p-dioxin

>  <dataset>  (172) 
FreeSolv

$$$$
pyridine
     RDKit          3D

 11 11  0  0  0  0  0  0  0  0999 V2000
    1.3879   -0.0684    1.6522 C   0  0  0  0  0  0  0  0  0  0  0  0
    0.2265   -0.4197    0.9733 C   0  0  0  0  0  0  0  0  0  0  0  0
   -0.6317   -1.3224    1.5803 C   0  0  0  0  0  0  0  0  0  0  0  0
   -0.4092   -1.8816    2.7908 N   0  0  0  0  0  0  0  0  0  0  0  0
    0.7299   -1.5161    3.4206 C   0  0  0  0  0  0  0  0  0  0  0  0
    1.6520   -0.6227    2.8997 C   0  0  0  0  0  0  0  0  0  0  0  0
    2.0856    0.6366    1.2102 H   0  0  0  0  0  0  0  0  0  0  0  0
    0.0003   -0.0005   -0.0002 H   0  0  0  0  0  0  0  0  0  0  0  0
   -1.5509   -1.6283    1.0918 H   0  0  0  0  0  0  0  0  0  0  0  0
    0.8883   -1.9761    4.3905 H   0  0  0  0  0  0  0  0  0  0  0  0
    2.5508   -0.3630    3.4473 H   0  0  0  0  0  0  0  0  0  0  0  0
  1  6  2  0
  1  2  1  0
  2  3  2  0
  3  4  1  0
  4  5  2  0
  5  6  1  0
  1  7  1  0
  2  8  1  0
  3  9  1  0
  5 10  1  0
  6 11  1  0
M  END
>  <_TriposChargeType>  (173) 
USER_CHARGES

>  <solvdG>  (173) 
-4.69

>  <fdG>  (173) 
-3.51

>  <fname>  (173) 
mobley_296847

>  <cname>  (173) 
 pyridine

>  <dataset>  (173) 
FreeSolv

$$$$
9,10-dihydroanthracene
     RDKit          3D

 26 28  0  0  0  0  0  0  0  0999 V2000
    2.0529   -0.1065   -0.6362 C   0  0  0  0  0  0  0  0  0  0  0  0
    0.7015    0.1770   -0.8101 C   0  0  0  0  0  0  0  0  0  0  0  0
    0.2472    0.6817   -2.0280 C   0  0  0  0  0  0  0  0  0  0  0  0
    1.1431    0.9191   -3.0814 C   0  0  0  0  0  0  0  0  0  0  0  0
    2.5064    0.6334   -2.9059 C   0  0  0  0  0  0  0  0  0  0  0  0
    2.9505    0.1148   -1.6801 C   0  0  0  0  0  0  0  0  0  0  0  0
    3.4951    0.8294   -4.0273 C   0  0  0  0  0  0  0  0  0  0  0  0
    3.0241    1.7329   -5.1387 C   0  0  0  0  0  0  0  0  0  0  0  0
    3.9612    2.2617   -6.0393 C   0  0  0  0  0  0  0  0  0  0  0  0
    3.5505    3.0748   -7.0951 C   0  0  0  0  0  0  0  0  0  0  0  0
    2.1990    3.3583   -7.2686 C   0  0  0  0  0  0  0  0  0  0  0  0
    1.2578    2.8285   -6.3867 C   0  0  0  0  0  0  0  0  0  0  0  0
    1.6607    2.0186   -5.3141 C   0  0  0  0  0  0  0  0  0  0  0  0
    0.6168    1.4315   -4.3981 C   0  0  0  0  0  0  0  0  0  0  0  0
    2.4077   -0.5052    0.3096 H   0  0  0  0  0  0  0  0  0  0  0  0
   -0.0000   -0.0003   -0.0001 H   0  0  0  0  0  0  0  0  0  0  0  0
   -0.8131    0.8881   -2.1536 H   0  0  0  0  0  0  0  0  0  0  0  0
    4.0017   -0.1215   -1.5342 H   0  0  0  0  0  0  0  0  0  0  0  0
    4.4141    1.2551   -3.6046 H   0  0  0  0  0  0  0  0  0  0  0  0
    3.7345   -0.1520   -4.4553 H   0  0  0  0  0  0  0  0  0  0  0  0
    5.0192    2.0394   -5.9219 H   0  0  0  0  0  0  0  0  0  0  0  0
    4.2845    3.4815   -7.7846 H   0  0  0  0  0  0  0  0  0  0  0  0
    1.8768    3.9868   -8.0937 H   0  0  0  0  0  0  0  0  0  0  0  0
    0.2045    3.0490   -6.5408 H   0  0  0  0  0  0  0  0  0  0  0  0
   -0.1331    2.2061   -4.1905 H   0  0  0  0  0  0  0  0  0  0  0  0
    0.1226    0.6034   -4.9210 H   0  0  0  0  0  0  0  0  0  0  0  0
  1  6  2  0
  1  2  1  0
  2  3  2  0
  3  4  1  0
  4 14  1  0
  4  5  2  0
  5  6  1  0
  5  7  1  0
  7  8  1  0
  8 13  2  0
  8  9  1  0
  9 10  2  0
 10 11  1  0
 11 12  2  0
 12 13  1  0
 13 14  1  0
  1 15  1  0
  2 16  1  0
  3 17  1  0
  6 18  1  0
  7 19  1  0
  7 20  1  0
  9 21  1  0
 10 22  1  0
 11 23  1  0
 12 24  1  0
 14 25  1  0
 14 26  1  0
M  END
>  <_TriposChargeType>  (174) 
USER_CHARGES

>  <solvdG>  (174) 
-3.78

>  <fdG>  (174) 
-4.3

>  <fname>  (174) 
mobley_2972345

>  <cname>  (174) 
 9,10-dihydroanthracene

>  <dataset>  (174) 
FreeSolv

$$$$
thiophene
     RDKit          3D

  9  9  0  0  0  0  0  0  0  0999 V2000
   -0.4682   -0.0882   -0.9718 C   0  0  0  0  0  0  0  0  0  0  0  0
   -0.2528    0.8087   -2.0577 C   0  0  0  0  0  0  0  0  0  0  0  0
   -0.9783    0.4538   -3.1737 C   0  0  0  0  0  0  0  0  0  0  0  0
   -1.9146   -0.9556   -2.9098 S   0  0  0  0  0  0  0  0  0  0  0  0
   -1.3504   -1.0945   -1.2990 C   0  0  0  0  0  0  0  0  0  0  0  0
   -0.0002   -0.0001    0.0001 H   0  0  0  0  0  0  0  0  0  0  0  0
    0.4010    1.6704   -2.0224 H   0  0  0  0  0  0  0  0  0  0  0  0
   -1.0031    0.9546   -4.1312 H   0  0  0  0  0  0  0  0  0  0  0  0
   -1.6902   -1.9046   -0.6692 H   0  0  0  0  0  0  0  0  0  0  0  0
  1  5  2  0
  1  2  1  0
  2  3  2  0
  3  4  1  0
  4  5  1  0
  1  6  1  0
  2  7  1  0
  3  8  1  0
  5  9  1  0
M  END
>  <_TriposChargeType>  (175) 
USER_CHARGES

>  <solvdG>  (175) 
-1.4

>  <fdG>  (175) 
-0.36

>  <fname>  (175) 
mobley_2972906

>  <cname>  (175) 
 thiophene

>  <dataset>  (175) 
FreeSolv

$$$$
2-methylprop-1-ene
     RDKit          3D

 12 11  0  0  0  0  0  0  0  0999 V2000
    1.7629   -2.7440    1.2188 C   0  0  0  0  0  0  0  0  0  0  0  0
    1.1097   -1.7854    0.2679 C   0  0  0  0  0  0  0  0  0  0  0  0
    0.4692   -0.6874    0.6960 C   0  0  0  0  0  0  0  0  0  0  0  0
    1.2144   -2.1247   -1.1894 C   0  0  0  0  0  0  0  0  0  0  0  0
    1.0536   -3.5210    1.5215 H   0  0  0  0  0  0  0  0  0  0  0  0
    2.6230   -3.2250    0.7420 H   0  0  0  0  0  0  0  0  0  0  0  0
    2.1197   -2.2465    2.1268 H   0  0  0  0  0  0  0  0  0  0  0  0
   -0.0000   -0.0002    0.0000 H   0  0  0  0  0  0  0  0  0  0  0  0
    0.3992   -0.4504    1.7525 H   0  0  0  0  0  0  0  0  0  0  0  0
    0.3664   -2.7453   -1.4968 H   0  0  0  0  0  0  0  0  0  0  0  0
    1.2136   -1.2111   -1.7929 H   0  0  0  0  0  0  0  0  0  0  0  0
    2.1323   -2.6760   -1.4201 H   0  0  0  0  0  0  0  0  0  0  0  0
  1  2  1  0
  2  3  2  3
  2  4  1  0
  1  5  1  0
  1  6  1  0
  1  7  1  0
  3  8  1  0
  3  9  1  0
  4 10  1  0
  4 11  1  0
  4 12  1  0
M  END
>  <_TriposChargeType>  (176) 
USER_CHARGES

>  <solvdG>  (176) 
1.16

>  <fdG>  (176) 
2.33

>  <fname>  (176) 
mobley_299266

>  <cname>  (176) 
 2-methylprop-1-ene

>  <dataset>  (176) 
FreeSolv

$$$$
chloroform
     RDKit          3D

  5  4  0  0  0  0  0  0  0  0999 V2000
   -0.0654    0.0828   -0.0478 C   0  0  0  0  0  0  0  0  0  0  0  0
   -0.9538   -1.4475   -0.1352 Cl  0  0  0  0  0  0  0  0  0  0  0  0
    0.2491    0.5251    1.6387 Cl  0  0  0  0  0  0  0  0  0  0  0  0
    1.4517   -0.0250   -0.9566 Cl  0  0  0  0  0  0  0  0  0  0  0  0
   -0.6817    0.8646   -0.4992 H   0  0  0  0  0  0  0  0  0  0  0  0
  1  2  1  0
  1  3  1  0
  1  4  1  0
  1  5  1  0
M  END
>  <_TriposChargeType>  (177) 
USER_CHARGES

>  <solvdG>  (177) 
-1.08

>  <fdG>  (177) 
0.28

>  <fname>  (177) 
mobley_2996632

>  <cname>  (177) 
 chloroform

>  <dataset>  (177) 
FreeSolv

$$$$
2,2,2-trifluoroethanol
     RDKit          3D

  9  8  0  0  0  0  0  0  0  0999 V2000
    0.7722   -0.3315    0.7004 C   0  0  0  0  0  0  0  0  0  0  0  0
    1.3425    0.8421    1.4537 C   0  0  0  0  0  0  0  0  0  0  0  0
    1.8881    1.7357    0.5998 F   0  0  0  0  0  0  0  0  0  0  0  0
    2.3083    0.4507    2.3117 F   0  0  0  0  0  0  0  0  0  0  0  0
    0.3869    1.4808    2.1613 F   0  0  0  0  0  0  0  0  0  0  0  0
    1.8121   -0.9630   -0.0310 O   0  0  0  0  0  0  0  0  0  0  0  0
    0.3377   -1.0582    1.3932 H   0  0  0  0  0  0  0  0  0  0  0  0
    0.0000    0.0000    0.0000 H   0  0  0  0  0  0  0  0  0  0  0  0
    1.4108   -1.7115   -0.5024 H   0  0  0  0  0  0  0  0  0  0  0  0
  1  2  1  0
  2  3  1  0
  2  4  1  0
  2  5  1  0
  1  6  1  0
  1  7  1  0
  1  8  1  0
  6  9  1  0
M  END
>  <_TriposChargeType>  (178) 
USER_CHARGES

>  <solvdG>  (178) 
-4.31

>  <fdG>  (178) 
-3.81

>  <fname>  (178) 
mobley_3006808

>  <cname>  (178) 
 2,2,2-trifluoroethanol

>  <dataset>  (178) 
FreeSolv

$$$$
prop-1-ene
     RDKit          3D

  9  8  0  0  0  0  0  0  0  0999 V2000
    0.8797   -1.4501    2.1744 C   0  0  0  0  0  0  0  0  0  0  0  0
    1.3491   -1.4450    0.7582 C   0  0  0  0  0  0  0  0  0  0  0  0
    0.8212   -0.6789   -0.2025 C   0  0  0  0  0  0  0  0  0  0  0  0
    0.0904   -2.1971    2.3030 H   0  0  0  0  0  0  0  0  0  0  0  0
    0.4830   -0.4778    2.4828 H   0  0  0  0  0  0  0  0  0  0  0  0
    1.7086   -1.7073    2.8408 H   0  0  0  0  0  0  0  0  0  0  0  0
    2.1710   -2.1092    0.5059 H   0  0  0  0  0  0  0  0  0  0  0  0
    1.2086   -0.7222   -1.2145 H   0  0  0  0  0  0  0  0  0  0  0  0
    0.0000    0.0000    0.0000 H   0  0  0  0  0  0  0  0  0  0  0  0
  1  2  1  0
  2  3  2  3
  1  4  1  0
  1  5  1  0
  1  6  1  0
  2  7  1  0
  3  8  1  0
  3  9  1  0
M  END
>  <_TriposChargeType>  (179) 
USER_CHARGES

>  <solvdG>  (179) 
1.32

>  <fdG>  (179) 
2.33

>  <fname>  (179) 
mobley_303222

>  <cname>  (179) 
 prop-1-ene

>  <dataset>  (179) 
FreeSolv

$$$$
acetic acid
     RDKit          3D

  8  7  0  0  0  0  0  0  0  0999 V2000
   -1.0284    0.3448   -0.1340 C   0  0  0  0  0  0  0  0  0  0  0  0
   -1.6530    0.6105    1.1990 C   0  0  0  0  0  0  0  0  0  0  0  0
   -2.6517    0.0533    1.6296 O   0  0  0  0  0  0  0  0  0  0  0  0
   -0.9598    1.5616    1.8714 O   0  0  0  0  0  0  0  0  0  0  0  0
   -1.4624    1.0088   -0.8857 H   0  0  0  0  0  0  0  0  0  0  0  0
    0.0533    0.4881   -0.0723 H   0  0  0  0  0  0  0  0  0  0  0  0
   -1.2259   -0.6905   -0.4265 H   0  0  0  0  0  0  0  0  0  0  0  0
   -0.1896    1.8857    1.3576 H   0  0  0  0  0  0  0  0  0  0  0  0
  1  2  1  0
  2  3  2  0
  2  4  1  0
  1  5  1  0
  1  6  1  0
  1  7  1  0
  4  8  1  0
M  END
>  <_TriposChargeType>  (180) 
USER_CHARGES

>  <solvdG>  (180) 
-6.69

>  <fdG>  (180) 
-7.28

>  <fname>  (180) 
mobley_3034976

>  <cname>  (180) 
 acetic acid

>  <dataset>  (180) 
FreeSolv

$$$$
1-ethyl-2-methyl-benzene
     RDKit          3D

 21 21  0  0  0  0  0  0  0  0999 V2000
    1.2974   -2.2574   -2.2094 C   0  0  0  0  0  0  0  0  0  0  0  0
    1.9532   -1.0258   -1.6043 C   0  0  0  0  0  0  0  0  0  0  0  0
    1.8851   -1.0363   -0.1124 C   0  0  0  0  0  0  0  0  0  0  0  0
    2.9210   -1.6309    0.6081 C   0  0  0  0  0  0  0  0  0  0  0  0
    2.8783   -1.6520    2.0022 C   0  0  0  0  0  0  0  0  0  0  0  0
    1.7997   -1.0786    2.6757 C   0  0  0  0  0  0  0  0  0  0  0  0
    0.7638   -0.4841    1.9551 C   0  0  0  0  0  0  0  0  0  0  0  0
    0.8066   -0.4630    0.5610 C   0  0  0  0  0  0  0  0  0  0  0  0
   -0.3140    0.1791   -0.1889 C   0  0  0  0  0  0  0  0  0  0  0  0
    1.3525   -2.2402   -3.3031 H   0  0  0  0  0  0  0  0  0  0  0  0
    0.2418   -2.3026   -1.9238 H   0  0  0  0  0  0  0  0  0  0  0  0
    1.7822   -3.1764   -1.8629 H   0  0  0  0  0  0  0  0  0  0  0  0
    1.4681   -0.1207   -1.9897 H   0  0  0  0  0  0  0  0  0  0  0  0
    3.0004   -0.9680   -1.9257 H   0  0  0  0  0  0  0  0  0  0  0  0
    3.7658   -2.0800    0.0928 H   0  0  0  0  0  0  0  0  0  0  0  0
    3.6853   -2.1141    2.5633 H   0  0  0  0  0  0  0  0  0  0  0  0
    1.7666   -1.0951    3.7611 H   0  0  0  0  0  0  0  0  0  0  0  0
   -0.0720   -0.0399    2.4893 H   0  0  0  0  0  0  0  0  0  0  0  0
   -0.1027    1.2424   -0.3508 H   0  0  0  0  0  0  0  0  0  0  0  0
   -0.4641   -0.3000   -1.1643 H   0  0  0  0  0  0  0  0  0  0  0  0
   -1.2602    0.0901    0.3594 H   0  0  0  0  0  0  0  0  0  0  0  0
  1  2  1  0
  2  3  1  0
  3  8  2  0
  3  4  1  0
  4  5  2  0
  5  6  1  0
  6  7  2  0
  7  8  1  0
  8  9  1  0
  1 10  1  0
  1 11  1  0
  1 12  1  0
  2 13  1  0
  2 14  1  0
  4 15  1  0
  5 16  1  0
  6 17  1  0
  7 18  1  0
  9 19  1  0
  9 20  1  0
  9 21  1  0
M  END
>  <_TriposChargeType>  (181) 
USER_CHARGES

>  <solvdG>  (181) 
-0.85

>  <fdG>  (181) 
-0.76

>  <fname>  (181) 
mobley_3040612

>  <cname>  (181) 
 1-ethyl-2-methylbenzene

>  <dataset>  (181) 
FreeSolv

$$$$
N2-ethyl-N4-isopropyl-6-methylsulfanyl-1,3,5-triazine-2,4-diamine
     RDKit          3D

 32 32  0  0  0  0  0  0  0  0999 V2000
   -1.5392   -1.5577   -4.8539 C   0  0  0  0  0  0  0  0  0  0  0  0
   -0.3284   -2.1382   -4.2061 C   0  0  0  0  0  0  0  0  0  0  0  0
   -0.1517   -1.6177   -2.8712 N   0  0  0  0  0  0  0  0  0  0  0  0
    0.9114   -1.9893   -2.0194 C   0  0  0  0  0  0  0  0  0  0  0  0
    0.9395   -1.4174   -0.8047 N   0  0  0  0  0  0  0  0  0  0  0  0
    1.9762   -1.8179   -0.0513 C   0  0  0  0  0  0  0  0  0  0  0  0
    2.9298   -2.6957   -0.4023 N   0  0  0  0  0  0  0  0  0  0  0  0
    2.7732   -3.1848   -1.6429 C   0  0  0  0  0  0  0  0  0  0  0  0
    1.7916   -2.8788   -2.5066 N   0  0  0  0  0  0  0  0  0  0  0  0
    3.9907   -4.3588   -2.2003 S   0  0  0  0  0  0  0  0  0  0  0  0
    5.4234   -3.7752   -1.2675 C   0  0  0  0  0  0  0  0  0  0  0  0
    2.0725   -1.2697    1.2178 N   0  0  0  0  0  0  0  0  0  0  0  0
    3.1530   -1.6016    2.1781 C   0  0  0  0  0  0  0  0  0  0  0  0
    2.6163   -1.4727    3.5963 C   0  0  0  0  0  0  0  0  0  0  0  0
    4.3316   -0.6702    1.9350 C   0  0  0  0  0  0  0  0  0  0  0  0
   -1.6694   -1.9554   -5.8663 H   0  0  0  0  0  0  0  0  0  0  0  0
   -2.4374   -1.7706   -4.2641 H   0  0  0  0  0  0  0  0  0  0  0  0
   -1.4339   -0.4688   -4.9296 H   0  0  0  0  0  0  0  0  0  0  0  0
    0.5692   -1.8930   -4.7817 H   0  0  0  0  0  0  0  0  0  0  0  0
   -0.4126   -3.2264   -4.1310 H   0  0  0  0  0  0  0  0  0  0  0  0
   -0.8290   -0.9463   -2.5270 H   0  0  0  0  0  0  0  0  0  0  0  0
    6.2904   -4.3994   -1.4932 H   0  0  0  0  0  0  0  0  0  0  0  0
    5.2130   -3.8277   -0.1973 H   0  0  0  0  0  0  0  0  0  0  0  0
    5.6445   -2.7411   -1.5399 H   0  0  0  0  0  0  0  0  0  0  0  0
    1.3639   -0.6049    1.5074 H   0  0  0  0  0  0  0  0  0  0  0  0
    3.4621   -2.6365    1.9952 H   0  0  0  0  0  0  0  0  0  0  0  0
    3.3926   -1.7120    4.3303 H   0  0  0  0  0  0  0  0  0  0  0  0
    2.2577   -0.4570    3.7975 H   0  0  0  0  0  0  0  0  0  0  0  0
    1.7753   -2.1562    3.7571 H   0  0  0  0  0  0  0  0  0  0  0  0
    5.1495   -0.8895    2.6301 H   0  0  0  0  0  0  0  0  0  0  0  0
    4.0380    0.3751    2.0760 H   0  0  0  0  0  0  0  0  0  0  0  0
    4.7255   -0.7799    0.9184 H   0  0  0  0  0  0  0  0  0  0  0  0
  1  2  1  0
  2  3  1  0
  3  4  1  0
  4  9  2  0
  4  5  1  0
  5  6  2  0
  6  7  1  0
  7  8  2  0
  8  9  1  0
  8 10  1  0
 10 11  1  0
  6 12  1  0
 12 13  1  0
 13 14  1  0
 13 15  1  0
  1 16  1  0
  1 17  1  0
  1 18  1  0
  2 19  1  0
  2 20  1  0
  3 21  1  0
 11 22  1  0
 11 23  1  0
 11 24  1  0
 12 25  1  0
 13 26  1  0
 14 27  1  0
 14 28  1  0
 14 29  1  0
 15 30  1  0
 15 31  1  0
 15 32  1  0
M  END
>  <_TriposChargeType>  (182) 
USER_CHARGES

>  <solvdG>  (182) 
-7.65

>  <fdG>  (182) 
-10.55

>  <fname>  (182) 
mobley_3047364

>  <cname>  (182) 
 2-N-ethyl-6-(methylsulfanyl)-4-N-(propan-2-yl)-1,3,5-triazine-2,4-diamine

>  <dataset>  (182) 
FreeSolv

$$$$
benzene
     RDKit          3D

 12 12  0  0  0  0  0  0  0  0999 V2000
    1.8851   -1.0363   -0.1124 C   0  0  0  0  0  0  0  0  0  0  0  0
    2.9210   -1.6309    0.6081 C   0  0  0  0  0  0  0  0  0  0  0  0
    2.8783   -1.6520    2.0022 C   0  0  0  0  0  0  0  0  0  0  0  0
    1.7997   -1.0786    2.6757 C   0  0  0  0  0  0  0  0  0  0  0  0
    0.7638   -0.4841    1.9551 C   0  0  0  0  0  0  0  0  0  0  0  0
    0.8066   -0.4630    0.5610 C   0  0  0  0  0  0  0  0  0  0  0  0
    1.9174   -1.0203   -1.1978 H   0  0  0  0  0  0  0  0  0  0  0  0
    3.7613   -2.0769    0.0841 H   0  0  0  0  0  0  0  0  0  0  0  0
    3.6848   -2.1150    2.5631 H   0  0  0  0  0  0  0  0  0  0  0  0
    1.7665   -1.0955    3.7614 H   0  0  0  0  0  0  0  0  0  0  0  0
   -0.0760   -0.0377    2.4791 H   0  0  0  0  0  0  0  0  0  0  0  0
    0.0004    0.0003   -0.0003 H   0  0  0  0  0  0  0  0  0  0  0  0
  1  6  2  0
  1  2  1  0
  2  3  2  0
  3  4  1  0
  4  5  2  0
  5  6  1  0
  1  7  1  0
  2  8  1  0
  3  9  1  0
  4 10  1  0
  5 11  1  0
  6 12  1  0
M  END
>  <_TriposChargeType>  (183) 
USER_CHARGES

>  <solvdG>  (183) 
-0.9

>  <fdG>  (183) 
-0.81

>  <fname>  (183) 
mobley_3053621

>  <cname>  (183) 
 benzene

>  <dataset>  (183) 
FreeSolv

$$$$
2,2,5-trimethylhexane
     RDKit          3D

 29 28  0  0  0  0  0  0  0  0999 V2000
   -0.8525   -1.8166    2.1089 C   0  0  0  0  0  0  0  0  0  0  0  0
   -0.9804   -1.9028    0.5873 C   0  0  0  0  0  0  0  0  0  0  0  0
   -0.6681   -3.3284    0.1243 C   0  0  0  0  0  0  0  0  0  0  0  0
   -0.0585   -0.9038   -0.1416 C   0  0  0  0  0  0  0  0  0  0  0  0
   -0.3453    0.5609    0.2207 C   0  0  0  0  0  0  0  0  0  0  0  0
    0.5518    1.6167   -0.4823 C   0  0  0  0  0  0  0  0  0  0  0  0
    0.3502    1.4791   -2.0046 C   0  0  0  0  0  0  0  0  0  0  0  0
    0.1626    3.0444   -0.0653 C   0  0  0  0  0  0  0  0  0  0  0  0
    2.0392    1.3844   -0.1679 C   0  0  0  0  0  0  0  0  0  0  0  0
   -1.0702   -0.8075    2.4710 H   0  0  0  0  0  0  0  0  0  0  0  0
    0.1556   -2.0887    2.4389 H   0  0  0  0  0  0  0  0  0  0  0  0
   -1.5618   -2.4939    2.5972 H   0  0  0  0  0  0  0  0  0  0  0  0
   -2.0211   -1.6834    0.3168 H   0  0  0  0  0  0  0  0  0  0  0  0
   -0.7520   -3.4204   -0.9639 H   0  0  0  0  0  0  0  0  0  0  0  0
    0.3483   -3.6177    0.4119 H   0  0  0  0  0  0  0  0  0  0  0  0
   -1.3587   -4.0460    0.5798 H   0  0  0  0  0  0  0  0  0  0  0  0
    0.9859   -1.1460    0.0871 H   0  0  0  0  0  0  0  0  0  0  0  0
   -0.1897   -1.0441   -1.2202 H   0  0  0  0  0  0  0  0  0  0  0  0
   -0.2348    0.6846    1.3052 H   0  0  0  0  0  0  0  0  0  0  0  0
   -1.3969    0.7791   -0.0088 H   0  0  0  0  0  0  0  0  0  0  0  0
    0.9631    2.2043   -2.5519 H   0  0  0  0  0  0  0  0  0  0  0  0
    0.6272    0.4772   -2.3519 H   0  0  0  0  0  0  0  0  0  0  0  0
   -0.6956    1.6496   -2.2847 H   0  0  0  0  0  0  0  0  0  0  0  0
    0.7964    3.7874   -0.5620 H   0  0  0  0  0  0  0  0  0  0  0  0
   -0.8796    3.2695   -0.3141 H   0  0  0  0  0  0  0  0  0  0  0  0
    0.2735    3.1829    1.0164 H   0  0  0  0  0  0  0  0  0  0  0  0
    2.6692    2.1303   -0.6649 H   0  0  0  0  0  0  0  0  0  0  0  0
    2.3738    0.3926   -0.4880 H   0  0  0  0  0  0  0  0  0  0  0  0
    2.2289    1.4547    0.9095 H   0  0  0  0  0  0  0  0  0  0  0  0
  1  2  1  0
  2  3  1  0
  2  4  1  0
  4  5  1  0
  5  6  1  0
  6  7  1  0
  6  8  1  0
  6  9  1  0
  1 10  1  0
  1 11  1  0
  1 12  1  0
  2 13  1  0
  3 14  1  0
  3 15  1  0
  3 16  1  0
  4 17  1  0
  4 18  1  0
  5 19  1  0
  5 20  1  0
  7 21  1  0
  7 22  1  0
  7 23  1  0
  8 24  1  0
  8 25  1  0
  8 26  1  0
  9 27  1  0
  9 28  1  0
  9 29  1  0
M  END
>  <_TriposChargeType>  (184) 
USER_CHARGES

>  <solvdG>  (184) 
2.93

>  <fdG>  (184) 
2.97

>  <fname>  (184) 
mobley_3060426

>  <cname>  (184) 
 2,2,5-trimethylhexane

>  <dataset>  (184) 
FreeSolv

$$$$
dimethoxymethane
     RDKit          3D

 13 12  0  0  0  0  0  0  0  0999 V2000
    1.1078    0.1076    0.0304 C   0  0  0  0  0  0  0  0  0  0  0  0
    1.3911    1.4995    0.0855 O   0  0  0  0  0  0  0  0  0  0  0  0
    2.7630    1.7603    0.3811 C   0  0  0  0  0  0  0  0  0  0  0  0
    3.6773    1.2212   -0.5734 O   0  0  0  0  0  0  0  0  0  0  0  0
    3.7842    2.0343   -1.7345 C   0  0  0  0  0  0  0  0  0  0  0  0
    0.0495   -0.0408   -0.1979 H   0  0  0  0  0  0  0  0  0  0  0  0
    1.3525   -0.3532    0.9907 H   0  0  0  0  0  0  0  0  0  0  0  0
    1.7150   -0.3479   -0.7554 H   0  0  0  0  0  0  0  0  0  0  0  0
    2.8986    2.8457    0.4467 H   0  0  0  0  0  0  0  0  0  0  0  0
    3.0117    1.3462    1.3648 H   0  0  0  0  0  0  0  0  0  0  0  0
    4.4922    1.5789   -2.4283 H   0  0  0  0  0  0  0  0  0  0  0  0
    4.1231    3.0304   -1.4459 H   0  0  0  0  0  0  0  0  0  0  0  0
    2.8026    2.1029   -2.2051 H   0  0  0  0  0  0  0  0  0  0  0  0
  1  2  1  0
  2  3  1  0
  3  4  1  0
  4  5  1  0
  1  6  1  0
  1  7  1  0
  1  8  1  0
  3  9  1  0
  3 10  1  0
  5 11  1  0
  5 12  1  0
  5 13  1  0
M  END
>  <_TriposChargeType>  (185) 
USER_CHARGES

>  <solvdG>  (185) 
-2.93

>  <fdG>  (185) 
-3.22

>  <fname>  (185) 
mobley_3083321

>  <cname>  (185) 
 dimethoxymethane

>  <dataset>  (185) 
FreeSolv

$$$$
3-tert-butyl-5-chloro-6-methyl-1H-pyrimidine-2,4-dione
     RDKit          3D

 27 27  0  0  0  0  0  0  0  0999 V2000
   -0.4757   -0.9583    0.2358 C   0  0  0  0  0  0  0  0  0  0  0  0
   -1.5588   -1.2585   -0.7630 C   0  0  0  0  0  0  0  0  0  0  0  0
   -1.6093   -2.3334   -1.5640 C   0  0  0  0  0  0  0  0  0  0  0  0
   -2.7485   -2.5146   -2.5108 C   0  0  0  0  0  0  0  0  0  0  0  0
   -2.8138   -3.5177   -3.2204 O   0  0  0  0  0  0  0  0  0  0  0  0
   -3.6940   -1.4779   -2.5082 N   0  0  0  0  0  0  0  0  0  0  0  0
   -3.6540   -0.3601   -1.6502 C   0  0  0  0  0  0  0  0  0  0  0  0
   -4.5156    0.5224   -1.6266 O   0  0  0  0  0  0  0  0  0  0  0  0
   -2.5557   -0.3133   -0.8087 N   0  0  0  0  0  0  0  0  0  0  0  0
   -4.7957   -1.5628   -3.4602 C   0  0  0  0  0  0  0  0  0  0  0  0
   -4.6458   -2.8434   -4.2853 C   0  0  0  0  0  0  0  0  0  0  0  0
   -6.1157   -1.5891   -2.6871 C   0  0  0  0  0  0  0  0  0  0  0  0
   -4.7533   -0.3427   -4.3838 C   0  0  0  0  0  0  0  0  0  0  0  0
   -0.4081   -3.5729   -1.5742 Cl  0  0  0  0  0  0  0  0  0  0  0  0
   -0.7227   -1.3965    1.2064 H   0  0  0  0  0  0  0  0  0  0  0  0
   -0.3598    0.1223    0.3571 H   0  0  0  0  0  0  0  0  0  0  0  0
    0.4785   -1.3705   -0.1037 H   0  0  0  0  0  0  0  0  0  0  0  0
   -2.4796    0.4796   -0.1773 H   0  0  0  0  0  0  0  0  0  0  0  0
   -5.4575   -2.9444   -5.0151 H   0  0  0  0  0  0  0  0  0  0  0  0
   -3.6974   -2.8506   -4.8339 H   0  0  0  0  0  0  0  0  0  0  0  0
   -4.6727   -3.7334   -3.6457 H   0  0  0  0  0  0  0  0  0  0  0  0
   -6.9734   -1.6527   -3.3668 H   0  0  0  0  0  0  0  0  0  0  0  0
   -6.2440   -0.6797   -2.0885 H   0  0  0  0  0  0  0  0  0  0  0  0
   -6.1587   -2.4483   -2.0086 H   0  0  0  0  0  0  0  0  0  0  0  0
   -5.5686   -0.3703   -5.1160 H   0  0  0  0  0  0  0  0  0  0  0  0
   -4.8439    0.5878   -3.8126 H   0  0  0  0  0  0  0  0  0  0  0  0
   -3.8135   -0.3019   -4.9467 H   0  0  0  0  0  0  0  0  0  0  0  0
  1  2  1  0
  2  9  1  0
  2  3  2  0
  3  4  1  0
  4  5  2  0
  4  6  1  0
  6  7  1  0
  7  8  2  0
  7  9  1  0
  6 10  1  0
 10 11  1  0
 10 12  1  0
 10 13  1  0
  3 14  1  0
  1 15  1  0
  1 16  1  0
  1 17  1  0
  9 18  1  0
 11 19  1  0
 11 20  1  0
 11 21  1  0
 12 22  1  0
 12 23  1  0
 12 24  1  0
 13 25  1  0
 13 26  1  0
 13 27  1  0
M  END
>  <_TriposChargeType>  (186) 
USER_CHARGES

>  <solvdG>  (186) 
-11.14

>  <fdG>  (186) 
-13.77

>  <fname>  (186) 
mobley_3105103

>  <cname>  (186) 
 terbacil

>  <dataset>  (186) 
FreeSolv

$$$$
propan-1-ol
     RDKit          3D

 12 11  0  0  0  0  0  0  0  0999 V2000
   -0.0035   -0.6640    0.8700 C   0  0  0  0  0  0  0  0  0  0  0  0
    1.2444   -0.4434    1.7060 C   0  0  0  0  0  0  0  0  0  0  0  0
    1.2749   -1.3494    2.9273 C   0  0  0  0  0  0  0  0  0  0  0  0
    2.4640   -1.0915    3.6610 O   0  0  0  0  0  0  0  0  0  0  0  0
   -0.0110   -0.0055   -0.0044 H   0  0  0  0  0  0  0  0  0  0  0  0
   -0.0454   -1.6989    0.5161 H   0  0  0  0  0  0  0  0  0  0  0  0
   -0.9074   -0.4685    1.4555 H   0  0  0  0  0  0  0  0  0  0  0  0
    1.2990    0.6047    2.0239 H   0  0  0  0  0  0  0  0  0  0  0  0
    2.1379   -0.6194    1.0950 H   0  0  0  0  0  0  0  0  0  0  0  0
    0.4156   -1.1576    3.5778 H   0  0  0  0  0  0  0  0  0  0  0  0
    1.2695   -2.4035    2.6321 H   0  0  0  0  0  0  0  0  0  0  0  0
    2.4527   -1.6833    4.4307 H   0  0  0  0  0  0  0  0  0  0  0  0
  1  2  1  0
  2  3  1  0
  3  4  1  0
  1  5  1  0
  1  6  1  0
  1  7  1  0
  2  8  1  0
  2  9  1  0
  3 10  1  0
  3 11  1  0
  4 12  1  0
M  END
>  <_TriposChargeType>  (187) 
USER_CHARGES

>  <solvdG>  (187) 
-4.85

>  <fdG>  (187) 
-3.33

>  <fname>  (187) 
mobley_313406

>  <cname>  (187) 
 propan-1-ol

>  <dataset>  (187) 
FreeSolv

$$$$
2,5-dimethylphenol
     RDKit          3D

 19 19  0  0  0  0  0  0  0  0999 V2000
    1.9317   -1.0134   -1.6029 C   0  0  0  0  0  0  0  0  0  0  0  0
    1.8851   -1.0363   -0.1124 C   0  0  0  0  0  0  0  0  0  0  0  0
    2.9210   -1.6309    0.6081 C   0  0  0  0  0  0  0  0  0  0  0  0
    2.8783   -1.6520    2.0022 C   0  0  0  0  0  0  0  0  0  0  0  0
    1.7997   -1.0786    2.6757 C   0  0  0  0  0  0  0  0  0  0  0  0
    0.7638   -0.4841    1.9551 C   0  0  0  0  0  0  0  0  0  0  0  0
    0.8066   -0.4630    0.5610 C   0  0  0  0  0  0  0  0  0  0  0  0
   -0.2967    0.0811    2.5972 O   0  0  0  0  0  0  0  0  0  0  0  0
    1.7703   -1.1113    4.1680 C   0  0  0  0  0  0  0  0  0  0  0  0
    2.4400   -0.1078   -1.9478 H   0  0  0  0  0  0  0  0  0  0  0  0
    2.4643   -1.8879   -1.9909 H   0  0  0  0  0  0  0  0  0  0  0  0
    0.9217   -1.0355   -2.0259 H   0  0  0  0  0  0  0  0  0  0  0  0
    3.7653   -2.0792    0.0913 H   0  0  0  0  0  0  0  0  0  0  0  0
    3.6905   -2.1172    2.5546 H   0  0  0  0  0  0  0  0  0  0  0  0
   -0.0023    0.0005    0.0013 H   0  0  0  0  0  0  0  0  0  0  0  0
   -0.9224    0.4468    1.9525 H   0  0  0  0  0  0  0  0  0  0  0  0
    2.2595   -0.2198    4.5777 H   0  0  0  0  0  0  0  0  0  0  0  0
    0.7402   -1.1482    4.5440 H   0  0  0  0  0  0  0  0  0  0  0  0
    2.2832   -2.0005    4.5557 H   0  0  0  0  0  0  0  0  0  0  0  0
  1  2  1  0
  2  7  2  0
  2  3  1  0
  3  4  2  0
  4  5  1  0
  5  6  2  0
  6  7  1  0
  6  8  1  0
  5  9  1  0
  1 10  1  0
  1 11  1  0
  1 12  1  0
  3 13  1  0
  4 14  1  0
  7 15  1  0
  8 16  1  0
  9 17  1  0
  9 18  1  0
  9 19  1  0
M  END
>  <_TriposChargeType>  (188) 
USER_CHARGES

>  <solvdG>  (188) 
-5.91

>  <fdG>  (188) 
-5.01

>  <fname>  (188) 
mobley_3144334

>  <cname>  (188) 
 2,5-dimethylphenol

>  <dataset>  (188) 
FreeSolv

$$$$
decan-1-ol
     RDKit          3D

 33 32  0  0  0  0  0  0  0  0999 V2000
   -2.6216    2.3833    0.2536 C   0  0  0  0  0  0  0  0  0  0  0  0
   -3.1471    2.2049   -1.1619 C   0  0  0  0  0  0  0  0  0  0  0  0
   -3.2485    0.7272   -1.5393 C   0  0  0  0  0  0  0  0  0  0  0  0
   -3.7777    0.5515   -2.9646 C   0  0  0  0  0  0  0  0  0  0  0  0
   -3.8779   -0.9289   -3.3391 C   0  0  0  0  0  0  0  0  0  0  0  0
   -4.4032   -1.1639   -4.7582 C   0  0  0  0  0  0  0  0  0  0  0  0
   -4.5034   -2.6442   -5.1326 C   0  0  0  0  0  0  0  0  0  0  0  0
   -5.0328   -2.8202   -6.5582 C   0  0  0  0  0  0  0  0  0  0  0  0
   -5.1337   -4.3014   -6.9346 C   0  0  0  0  0  0  0  0  0  0  0  0
   -5.6589   -4.5016   -8.3510 C   0  0  0  0  0  0  0  0  0  0  0  0
   -5.7330   -5.8882   -8.6490 O   0  0  0  0  0  0  0  0  0  0  0  0
   -2.5522    3.4440    0.5154 H   0  0  0  0  0  0  0  0  0  0  0  0
   -1.6283    1.9364    0.3627 H   0  0  0  0  0  0  0  0  0  0  0  0
   -3.2923    1.8999    0.9708 H   0  0  0  0  0  0  0  0  0  0  0  0
   -4.1328    2.6780   -1.2419 H   0  0  0  0  0  0  0  0  0  0  0  0
   -2.4804    2.7233   -1.8608 H   0  0  0  0  0  0  0  0  0  0  0  0
   -2.2613    0.2571   -1.4536 H   0  0  0  0  0  0  0  0  0  0  0  0
   -3.9135    0.2136   -0.8344 H   0  0  0  0  0  0  0  0  0  0  0  0
   -3.1097    1.0711   -3.6606 H   0  0  0  0  0  0  0  0  0  0  0  0
   -4.7656    1.0200   -3.0494 H   0  0  0  0  0  0  0  0  0  0  0  0
   -2.8974   -1.4073   -3.2259 H   0  0  0  0  0  0  0  0  0  0  0  0
   -4.5562   -1.4302   -2.6373 H   0  0  0  0  0  0  0  0  0  0  0  0
   -3.7623   -0.6416   -5.4789 H   0  0  0  0  0  0  0  0  0  0  0  0
   -5.3984   -0.7080   -4.8329 H   0  0  0  0  0  0  0  0  0  0  0  0
   -5.1693   -3.1576   -4.4284 H   0  0  0  0  0  0  0  0  0  0  0  0
   -3.5190   -3.1189   -5.0556 H   0  0  0  0  0  0  0  0  0  0  0  0
   -4.3661   -2.3079   -7.2626 H   0  0  0  0  0  0  0  0  0  0  0  0
   -6.0180   -2.3463   -6.6422 H   0  0  0  0  0  0  0  0  0  0  0  0
   -4.1474   -4.7718   -6.8491 H   0  0  0  0  0  0  0  0  0  0  0  0
   -5.8044   -4.8021   -6.2258 H   0  0  0  0  0  0  0  0  0  0  0  0
   -4.9820   -4.0310   -9.0710 H   0  0  0  0  0  0  0  0  0  0  0  0
   -6.6547   -4.0617   -8.4658 H   0  0  0  0  0  0  0  0  0  0  0  0
   -6.0709   -5.9631   -9.5564 H   0  0  0  0  0  0  0  0  0  0  0  0
  1  2  1  0
  2  3  1  0
  3  4  1  0
  4  5  1  0
  5  6  1  0
  6  7  1  0
  7  8  1  0
  8  9  1  0
  9 10  1  0
 10 11  1  0
  1 12  1  0
  1 13  1  0
  1 14  1  0
  2 15  1  0
  2 16  1  0
  3 17  1  0
  3 18  1  0
  4 19  1  0
  4 20  1  0
  5 21  1  0
  5 22  1  0
  6 23  1  0
  6 24  1  0
  7 25  1  0
  7 26  1  0
  8 27  1  0
  8 28  1  0
  9 29  1  0
  9 30  1  0
 10 31  1  0
 10 32  1  0
 11 33  1  0
M  END
>  <_TriposChargeType>  (189) 
USER_CHARGES

>  <solvdG>  (189) 
-3.64

>  <fdG>  (189) 
-2.45

>  <fname>  (189) 
mobley_3151666

>  <cname>  (189) 
 decan-1-ol

>  <dataset>  (189) 
FreeSolv

$$$$
octane
     RDKit          3D

 26 25  0  0  0  0  0  0  0  0999 V2000
    0.5808   -1.0132    0.8656 C   0  0  0  0  0  0  0  0  0  0  0  0
    0.2770   -0.4863    2.2599 C   0  0  0  0  0  0  0  0  0  0  0  0
    0.8896    0.8977    2.4784 C   0  0  0  0  0  0  0  0  0  0  0  0
    0.6119    1.4737    3.8699 C   0  0  0  0  0  0  0  0  0  0  0  0
    1.2248    2.8588    4.0888 C   0  0  0  0  0  0  0  0  0  0  0  0
    0.9167    3.3849    5.4927 C   0  0  0  0  0  0  0  0  0  0  0  0
    1.5276    4.7684    5.7146 C   0  0  0  0  0  0  0  0  0  0  0  0
    1.2238    5.2945    7.1082 C   0  0  0  0  0  0  0  0  0  0  0  0
    0.1395   -2.0039    0.7162 H   0  0  0  0  0  0  0  0  0  0  0  0
    0.1861   -0.3410    0.0969 H   0  0  0  0  0  0  0  0  0  0  0  0
    1.6624   -1.0973    0.7199 H   0  0  0  0  0  0  0  0  0  0  0  0
   -0.8097   -0.4470    2.3891 H   0  0  0  0  0  0  0  0  0  0  0  0
    0.6694   -1.1898    3.0032 H   0  0  0  0  0  0  0  0  0  0  0  0
    1.9769    0.8324    2.3471 H   0  0  0  0  0  0  0  0  0  0  0  0
    0.5211    1.5915    1.7129 H   0  0  0  0  0  0  0  0  0  0  0  0
   -0.4707    1.5163    4.0409 H   0  0  0  0  0  0  0  0  0  0  0  0
    1.0217    0.7796    4.6143 H   0  0  0  0  0  0  0  0  0  0  0  0
    0.8325    3.5648    3.3483 H   0  0  0  0  0  0  0  0  0  0  0  0
    2.3109    2.8070    3.9468 H   0  0  0  0  0  0  0  0  0  0  0  0
    1.3092    2.6862    6.2415 H   0  0  0  0  0  0  0  0  0  0  0  0
   -0.1695    3.4354    5.6357 H   0  0  0  0  0  0  0  0  0  0  0  0
    1.1357    5.4724    4.9713 H   0  0  0  0  0  0  0  0  0  0  0  0
    2.6141    4.7223    5.5766 H   0  0  0  0  0  0  0  0  0  0  0  0
    1.6699    6.2845    7.2450 H   0  0  0  0  0  0  0  0  0  0  0  0
    1.6311    4.6291    7.8762 H   0  0  0  0  0  0  0  0  0  0  0  0
    0.1444    5.3833    7.2673 H   0  0  0  0  0  0  0  0  0  0  0  0
  1  2  1  0
  2  3  1  0
  3  4  1  0
  4  5  1  0
  5  6  1  0
  6  7  1  0
  7  8  1  0
  1  9  1  0
  1 10  1  0
  1 11  1  0
  2 12  1  0
  2 13  1  0
  3 14  1  0
  3 15  1  0
  4 16  1  0
  4 17  1  0
  5 18  1  0
  5 19  1  0
  6 20  1  0
  6 21  1  0
  7 22  1  0
  7 23  1  0
  8 24  1  0
  8 25  1  0
  8 26  1  0
M  END
>  <_TriposChargeType>  (190) 
USER_CHARGES

>  <solvdG>  (190) 
2.88

>  <fdG>  (190) 
3.09

>  <fname>  (190) 
mobley_3167746

>  <cname>  (190) 
 octane

>  <dataset>  (190) 
FreeSolv

$$$$
2-chloroaniline
     RDKit          3D

 14 14  0  0  0  0  0  0  0  0999 V2000
    1.8851   -1.0363   -0.1124 C   0  0  0  0  0  0  0  0  0  0  0  0
    2.9210   -1.6309    0.6081 C   0  0  0  0  0  0  0  0  0  0  0  0
    2.8783   -1.6520    2.0022 C   0  0  0  0  0  0  0  0  0  0  0  0
    1.7997   -1.0786    2.6757 C   0  0  0  0  0  0  0  0  0  0  0  0
    0.7638   -0.4841    1.9551 C   0  0  0  0  0  0  0  0  0  0  0  0
    0.8066   -0.4630    0.5610 C   0  0  0  0  0  0  0  0  0  0  0  0
   -0.3419    0.1053    2.6086 N   0  0  0  0  0  0  0  0  0  0  0  0
    1.7870   -1.1263    4.4024 Cl  0  0  0  0  0  0  0  0  0  0  0  0
    1.9193   -1.0194   -1.1979 H   0  0  0  0  0  0  0  0  0  0  0  0
    3.7604   -2.0775    0.0833 H   0  0  0  0  0  0  0  0  0  0  0  0
    3.6936   -2.1193    2.5487 H   0  0  0  0  0  0  0  0  0  0  0  0
    0.0054   -0.0026   -0.0117 H   0  0  0  0  0  0  0  0  0  0  0  0
   -0.4017    0.0523    3.6040 H   0  0  0  0  0  0  0  0  0  0  0  0
   -1.0869    0.4795    2.0590 H   0  0  0  0  0  0  0  0  0  0  0  0
  1  6  2  0
  1  2  1  0
  2  3  2  0
  3  4  1  0
  4  5  2  0
  5  6  1  0
  5  7  1  0
  4  8  1  0
  1  9  1  0
  2 10  1  0
  3 11  1  0
  6 12  1  0
  7 13  1  0
  7 14  1  0
M  END
>  <_TriposChargeType>  (191) 
USER_CHARGES

>  <solvdG>  (191) 
-4.91

>  <fdG>  (191) 
-4.85

>  <fname>  (191) 
mobley_3169935

>  <cname>  (191) 
 2-chloroaniline

>  <dataset>  (191) 
FreeSolv

$$$$
1,2,4-trimethylbenzene
     RDKit          3D

 21 21  0  0  0  0  0  0  0  0999 V2000
    1.9308   -1.0141   -1.6028 C   0  0  0  0  0  0  0  0  0  0  0  0
    1.8851   -1.0363   -0.1124 C   0  0  0  0  0  0  0  0  0  0  0  0
    2.9210   -1.6309    0.6081 C   0  0  0  0  0  0  0  0  0  0  0  0
    2.8783   -1.6520    2.0022 C   0  0  0  0  0  0  0  0  0  0  0  0
    1.7997   -1.0786    2.6757 C   0  0  0  0  0  0  0  0  0  0  0  0
    0.7638   -0.4841    1.9551 C   0  0  0  0  0  0  0  0  0  0  0  0
    0.8066   -0.4630    0.5610 C   0  0  0  0  0  0  0  0  0  0  0  0
   -0.4019    0.1344    2.6546 C   0  0  0  0  0  0  0  0  0  0  0  0
    1.7748   -1.1152    4.1686 C   0  0  0  0  0  0  0  0  0  0  0  0
    2.4386   -0.1084   -1.9484 H   0  0  0  0  0  0  0  0  0  0  0  0
    2.4636   -1.8886   -1.9907 H   0  0  0  0  0  0  0  0  0  0  0  0
    0.9207   -1.0368   -2.0252 H   0  0  0  0  0  0  0  0  0  0  0  0
    3.7652   -2.0798    0.0915 H   0  0  0  0  0  0  0  0  0  0  0  0
    3.6917   -2.1159    2.5542 H   0  0  0  0  0  0  0  0  0  0  0  0
   -0.0012   -0.0002   -0.0012 H   0  0  0  0  0  0  0  0  0  0  0  0
   -0.2025    1.1920    2.8625 H   0  0  0  0  0  0  0  0  0  0  0  0
   -1.3122    0.0631    2.0467 H   0  0  0  0  0  0  0  0  0  0  0  0
   -0.6107   -0.3753    3.6033 H   0  0  0  0  0  0  0  0  0  0  0  0
    2.2656   -0.2250    4.5785 H   0  0  0  0  0  0  0  0  0  0  0  0
    0.7459   -1.1528    4.5470 H   0  0  0  0  0  0  0  0  0  0  0  0
    2.2886   -2.0056    4.5517 H   0  0  0  0  0  0  0  0  0  0  0  0
  1  2  1  0
  2  7  2  0
  2  3  1  0
  3  4  2  0
  4  5  1  0
  5  6  2  0
  6  7  1  0
  6  8  1  0
  5  9  1  0
  1 10  1  0
  1 11  1  0
  1 12  1  0
  3 13  1  0
  4 14  1  0
  7 15  1  0
  8 16  1  0
  8 17  1  0
  8 18  1  0
  9 19  1  0
  9 20  1  0
  9 21  1  0
M  END
>  <_TriposChargeType>  (192) 
USER_CHARGES

>  <solvdG>  (192) 
-0.86

>  <fdG>  (192) 
-0.8

>  <fname>  (192) 
mobley_3183805

>  <cname>  (192) 
 1,2,4-trimethylbenzene

>  <dataset>  (192) 
FreeSolv

$$$$
2-methylaniline
     RDKit          3D

 17 17  0  0  0  0  0  0  0  0999 V2000
    1.9564   -1.0274   -1.6048 C   0  0  0  0  0  0  0  0  0  0  0  0
    1.8851   -1.0363   -0.1124 C   0  0  0  0  0  0  0  0  0  0  0  0
    2.9210   -1.6309    0.6081 C   0  0  0  0  0  0  0  0  0  0  0  0
    2.8783   -1.6520    2.0022 C   0  0  0  0  0  0  0  0  0  0  0  0
    1.7997   -1.0786    2.6757 C   0  0  0  0  0  0  0  0  0  0  0  0
    0.7638   -0.4841    1.9551 C   0  0  0  0  0  0  0  0  0  0  0  0
    0.8066   -0.4630    0.5610 C   0  0  0  0  0  0  0  0  0  0  0  0
   -0.2510    0.1431   -0.1522 N   0  0  0  0  0  0  0  0  0  0  0  0
    2.4708   -0.1252   -1.9497 H   0  0  0  0  0  0  0  0  0  0  0  0
    2.4950   -1.9057   -1.9758 H   0  0  0  0  0  0  0  0  0  0  0  0
    0.9536   -1.0531   -2.0442 H   0  0  0  0  0  0  0  0  0  0  0  0
    3.7655   -2.0808    0.0930 H   0  0  0  0  0  0  0  0  0  0  0  0
    3.6848   -2.1151    2.5633 H   0  0  0  0  0  0  0  0  0  0  0  0
    1.7664   -1.0952    3.7611 H   0  0  0  0  0  0  0  0  0  0  0  0
   -0.0709   -0.0400    2.4913 H   0  0  0  0  0  0  0  0  0  0  0  0
   -0.1962    0.1993   -1.1481 H   0  0  0  0  0  0  0  0  0  0  0  0
   -0.9876    0.5875    0.3559 H   0  0  0  0  0  0  0  0  0  0  0  0
  1  2  1  0
  2  7  2  0
  2  3  1  0
  3  4  2  0
  4  5  1  0
  5  6  2  0
  6  7  1  0
  7  8  1  0
  1  9  1  0
  1 10  1  0
  1 11  1  0
  3 12  1  0
  4 13  1  0
  5 14  1  0
  6 15  1  0
  8 16  1  0
  8 17  1  0
M  END
>  <_TriposChargeType>  (193) 
USER_CHARGES

>  <solvdG>  (193) 
-5.53

>  <fdG>  (193) 
-5.33

>  <fname>  (193) 
mobley_3187514

>  <cname>  (193) 
 2-methylaniline

>  <dataset>  (193) 
FreeSolv

$$$$
[2-(dimethylamino)-5,6-dimethyl-pyrimidin-4-yl] N,N-dimethylcarbamate
     RDKit          3D

 35 35  0  0  0  0  0  0  0  0999 V2000
    4.4470   -1.3105    1.1860 C   0  0  0  0  0  0  0  0  0  0  0  0
    4.1119   -2.6614    1.7097 C   0  0  0  0  0  0  0  0  0  0  0  0
    4.9009   -3.7665    1.4635 C   0  0  0  0  0  0  0  0  0  0  0  0
    4.6231   -5.0037    1.9246 N   0  0  0  0  0  0  0  0  0  0  0  0
    3.4987   -5.0969    2.6597 C   0  0  0  0  0  0  0  0  0  0  0  0
    2.6487   -4.0992    2.9690 N   0  0  0  0  0  0  0  0  0  0  0  0
    2.9871   -2.8897    2.4759 C   0  0  0  0  0  0  0  0  0  0  0  0
    2.1245   -1.8313    2.7795 O   0  0  0  0  0  0  0  0  0  0  0  0
    1.9787   -1.5859    4.1480 C   0  0  0  0  0  0  0  0  0  0  0  0
    2.5550   -2.2390    5.0173 O   0  0  0  0  0  0  0  0  0  0  0  0
    1.1091   -0.5214    4.4100 N   0  0  0  0  0  0  0  0  0  0  0  0
    0.8352   -0.1211    5.7828 C   0  0  0  0  0  0  0  0  0  0  0  0
    0.4332    0.2493    3.3713 C   0  0  0  0  0  0  0  0  0  0  0  0
    3.1763   -6.3776    3.1593 N   0  0  0  0  0  0  0  0  0  0  0  0
    4.0331   -7.5109    2.8768 C   0  0  0  0  0  0  0  0  0  0  0  0
    1.9926   -6.5700    3.9719 C   0  0  0  0  0  0  0  0  0  0  0  0
    6.1440   -3.6408    0.6457 C   0  0  0  0  0  0  0  0  0  0  0  0
    5.0721   -0.7741    1.9064 H   0  0  0  0  0  0  0  0  0  0  0  0
    4.9849   -1.3823    0.2349 H   0  0  0  0  0  0  0  0  0  0  0  0
    3.5390   -0.7267    1.0011 H   0  0  0  0  0  0  0  0  0  0  0  0
    1.5587    0.6309    6.0864 H   0  0  0  0  0  0  0  0  0  0  0  0
    0.9140   -0.9891    6.4325 H   0  0  0  0  0  0  0  0  0  0  0  0
   -0.1690    0.2906    5.8434 H   0  0  0  0  0  0  0  0  0  0  0  0
   -0.5216   -0.2175    3.1495 H   0  0  0  0  0  0  0  0  0  0  0  0
    1.0527    0.2646    2.4795 H   0  0  0  0  0  0  0  0  0  0  0  0
    0.2749    1.2631    3.7265 H   0  0  0  0  0  0  0  0  0  0  0  0
    3.6212   -8.4045    3.3440 H   0  0  0  0  0  0  0  0  0  0  0  0
    5.0308   -7.3239    3.2725 H   0  0  0  0  0  0  0  0  0  0  0  0
    4.0963   -7.6633    1.7999 H   0  0  0  0  0  0  0  0  0  0  0  0
    1.9147   -7.6176    4.2599 H   0  0  0  0  0  0  0  0  0  0  0  0
    1.1077   -6.2852    3.4037 H   0  0  0  0  0  0  0  0  0  0  0  0
    2.0586   -5.9534    4.8676 H   0  0  0  0  0  0  0  0  0  0  0  0
    7.0012   -3.4126    1.2898 H   0  0  0  0  0  0  0  0  0  0  0  0
    6.3547   -4.5684    0.0992 H   0  0  0  0  0  0  0  0  0  0  0  0
    6.0474   -2.8444   -0.1028 H   0  0  0  0  0  0  0  0  0  0  0  0
  1  2  1  0
  2  7  2  0
  2  3  1  0
  3  4  2  0
  4  5  1  0
  5  6  2  0
  6  7  1  0
  7  8  1  0
  8  9  1  0
  9 10  2  0
  9 11  1  0
 11 12  1  0
 11 13  1  0
  5 14  1  0
 14 15  1  0
 14 16  1  0
  3 17  1  0
  1 18  1  0
  1 19  1  0
  1 20  1  0
 12 21  1  0
 12 22  1  0
 12 23  1  0
 13 24  1  0
 13 25  1  0
 13 26  1  0
 15 27  1  0
 15 28  1  0
 15 29  1  0
 16 30  1  0
 16 31  1  0
 16 32  1  0
 17 33  1  0
 17 34  1  0
 17 35  1  0
M  END
>  <_TriposChargeType>  (194) 
USER_CHARGES

>  <solvdG>  (194) 
-9.41

>  <fdG>  (194) 
-13.87

>  <fname>  (194) 
mobley_3201701

>  <cname>  (194) 
 pirimor

>  <dataset>  (194) 
FreeSolv

$$$$
[(1S)-1-methyl-2-nitrooxy-ethyl] nitrate
     RDKit          3D

 17 16  0  0  0  0  0  0  0  0999 V2000
   -0.4238    0.8108    0.6004 C   0  0  0  0  0  0  0  0  0  0  0  0
   -0.1831    0.5832    2.0850 C   0  0  1  0  0  0  0  0  0  0  0  0
    0.8907    0.5686    2.3018 H   0  0  0  0  0  0  0  0  0  0  0  0
   -0.8754    1.6440    2.9312 C   0  0  0  0  0  0  0  0  0  0  0  0
   -0.6159    1.3807    4.3060 O   0  0  0  0  0  0  0  0  0  0  0  0
   -1.2209    2.3189    5.1863 N   0  0  0  0  0  4  0  0  0  0  0  0
   -1.8834    3.2300    4.6846 O   0  0  0  0  0  0  0  0  0  0  0  0
   -0.9882    2.0794    6.3718 O   0  0  0  0  0  1  0  0  0  0  0  0
   -0.7096   -0.6923    2.4478 O   0  0  0  0  0  0  0  0  0  0  0  0
    0.1487   -1.7725    2.1101 N   0  0  0  0  0  4  0  0  0  0  0  0
    1.2193   -1.5055    1.5594 O   0  0  0  0  0  0  0  0  0  0  0  0
   -0.3179   -2.8670    2.4285 O   0  0  0  0  0  1  0  0  0  0  0  0
   -1.4974    0.8254    0.3837 H   0  0  0  0  0  0  0  0  0  0  0  0
    0.0100    1.7589    0.2680 H   0  0  0  0  0  0  0  0  0  0  0  0
    0.0060   -0.0016    0.0041 H   0  0  0  0  0  0  0  0  0  0  0  0
   -0.4936    2.6446    2.7028 H   0  0  0  0  0  0  0  0  0  0  0  0
   -1.9592    1.6232    2.7801 H   0  0  0  0  0  0  0  0  0  0  0  0
  1  2  1  0
  2  3  1  6
  2  4  1  0
  4  5  1  0
  5  6  1  0
  6  7  2  0
  6  8  1  0
  2  9  1  0
  9 10  1  0
 10 11  2  0
 10 12  1  0
  1 13  1  0
  1 14  1  0
  1 15  1  0
  4 16  1  0
  4 17  1  0
M  CHG  4   6   1   8  -1  10   1  12  -1
M  END
>  <_TriposChargeType>  (195) 
USER_CHARGES

>  <solvdG>  (195) 
-4.95

>  <fdG>  (195) 
-5.65

>  <fname>  (195) 
mobley_3210206

>  <cname>  (195) 
 1,2-dinitroxypropane

>  <dataset>  (195) 
FreeSolv

$$$$
cyclohexene
     RDKit          3D

 16 16  0  0  0  0  0  0  0  0999 V2000
   -0.7647   -1.2385   -0.1625 C   0  0  0  0  0  0  0  0  0  0  0  0
    0.6909   -1.2572    0.2957 C   0  0  0  0  0  0  0  0  0  0  0  0
    1.4653   -0.0602   -0.2621 C   0  0  0  0  0  0  0  0  0  0  0  0
    0.6947    1.2246   -0.1924 C   0  0  0  0  0  0  0  0  0  0  0  0
   -0.6207    1.2769    0.0589 C   0  0  0  0  0  0  0  0  0  0  0  0
   -1.4654    0.0545    0.2623 C   0  0  0  0  0  0  0  0  0  0  0  0
   -1.3007   -2.1010    0.2494 H   0  0  0  0  0  0  0  0  0  0  0  0
   -0.8010   -1.3331   -1.2555 H   0  0  0  0  0  0  0  0  0  0  0  0
    0.7252   -1.2374    1.3927 H   0  0  0  0  0  0  0  0  0  0  0  0
    1.1739   -2.1890   -0.0196 H   0  0  0  0  0  0  0  0  0  0  0  0
    2.4036    0.0473    0.2935 H   0  0  0  0  0  0  0  0  0  0  0  0
    1.7312   -0.2470   -1.3094 H   0  0  0  0  0  0  0  0  0  0  0  0
    1.2422    2.1491   -0.3513 H   0  0  0  0  0  0  0  0  0  0  0  0
   -1.1122    2.2436    0.1170 H   0  0  0  0  0  0  0  0  0  0  0  0
   -1.7388   -0.0040    1.3225 H   0  0  0  0  0  0  0  0  0  0  0  0
   -2.3975    0.1575   -0.3048 H   0  0  0  0  0  0  0  0  0  0  0  0
  1  6  1  0
  1  2  1  0
  2  3  1  0
  3  4  1  0
  4  5  2  0
  5  6  1  0
  1  7  1  0
  1  8  1  0
  2  9  1  0
  2 10  1  0
  3 11  1  0
  3 12  1  0
  4 13  1  0
  5 14  1  0
  6 15  1  0
  6 16  1  0
M  END
>  <_TriposChargeType>  (196) 
USER_CHARGES

>  <solvdG>  (196) 
0.14

>  <fdG>  (196) 
1.18

>  <fname>  (196) 
mobley_3211679

>  <cname>  (196) 
 cyclohexene

>  <dataset>  (196) 
FreeSolv

$$$$
p-xylene
     RDKit          3D

 18 18  0  0  0  0  0  0  0  0999 V2000
    1.9305   -1.0133   -1.6029 C   0  0  0  0  0  0  0  0  0  0  0  0
    1.8851   -1.0363   -0.1124 C   0  0  0  0  0  0  0  0  0  0  0  0
    2.9210   -1.6309    0.6081 C   0  0  0  0  0  0  0  0  0  0  0  0
    2.8783   -1.6520    2.0022 C   0  0  0  0  0  0  0  0  0  0  0  0
    1.7997   -1.0786    2.6757 C   0  0  0  0  0  0  0  0  0  0  0  0
    0.7638   -0.4841    1.9551 C   0  0  0  0  0  0  0  0  0  0  0  0
    0.8066   -0.4630    0.5610 C   0  0  0  0  0  0  0  0  0  0  0  0
    1.7529   -1.1036    4.1660 C   0  0  0  0  0  0  0  0  0  0  0  0
    2.4383   -0.1076   -1.9481 H   0  0  0  0  0  0  0  0  0  0  0  0
    2.4630   -1.8877   -1.9914 H   0  0  0  0  0  0  0  0  0  0  0  0
    0.9202   -1.0356   -2.0251 H   0  0  0  0  0  0  0  0  0  0  0  0
    3.7650   -2.0800    0.0916 H   0  0  0  0  0  0  0  0  0  0  0  0
    3.6891   -2.1183    2.5555 H   0  0  0  0  0  0  0  0  0  0  0  0
   -0.0809   -0.0359    2.4717 H   0  0  0  0  0  0  0  0  0  0  0  0
   -0.0052    0.0022    0.0080 H   0  0  0  0  0  0  0  0  0  0  0  0
    2.2382   -0.2106    4.5785 H   0  0  0  0  0  0  0  0  0  0  0  0
    0.7185   -1.1377    4.5318 H   0  0  0  0  0  0  0  0  0  0  0  0
    2.2604   -1.9914    4.5658 H   0  0  0  0  0  0  0  0  0  0  0  0
  1  2  1  0
  2  7  2  0
  2  3  1  0
  3  4  2  0
  4  5  1  0
  5  6  2  0
  6  7  1  0
  5  8  1  0
  1  9  1  0
  1 10  1  0
  1 11  1  0
  3 12  1  0
  4 13  1  0
  6 14  1  0
  7 15  1  0
  8 16  1  0
  8 17  1  0
  8 18  1  0
M  END
>  <_TriposChargeType>  (197) 
USER_CHARGES

>  <solvdG>  (197) 
-0.8

>  <fdG>  (197) 
-0.66

>  <fname>  (197) 
mobley_3234716

>  <cname>  (197) 
 p-xylene

>  <dataset>  (197) 
FreeSolv

$$$$
glycerol
     RDKit          3D

 14 13  0  0  0  0  0  0  0  0999 V2000
    0.9856    0.2573   -2.5348 C   0  0  0  0  0  0  0  0  0  0  0  0
    1.1440    1.2331   -1.3744 C   0  0  0  0  0  0  0  0  0  0  0  0
    0.9523    0.5385   -0.0326 C   0  0  0  0  0  0  0  0  0  0  0  0
    1.1111    1.4951    1.0099 O   0  0  0  0  0  0  0  0  0  0  0  0
    2.4671    1.7733   -1.4064 O   0  0  0  0  0  0  0  0  0  0  0  0
    1.1711    0.9412   -3.7698 O   0  0  0  0  0  0  0  0  0  0  0  0
   -0.0099   -0.1975   -2.5458 H   0  0  0  0  0  0  0  0  0  0  0  0
    1.7366   -0.5375   -2.4872 H   0  0  0  0  0  0  0  0  0  0  0  0
    0.4552    2.0798   -1.4720 H   0  0  0  0  0  0  0  0  0  0  0  0
    1.6987   -0.2487    0.1169 H   0  0  0  0  0  0  0  0  0  0  0  0
   -0.0518    0.1109    0.0500 H   0  0  0  0  0  0  0  0  0  0  0  0
    0.9828    1.0191    1.8455 H   0  0  0  0  0  0  0  0  0  0  0  0
    2.5568    2.2223   -2.2599 H   0  0  0  0  0  0  0  0  0  0  0  0
    1.0609    0.2809   -4.4720 H   0  0  0  0  0  0  0  0  0  0  0  0
  1  2  1  0
  2  3  1  0
  3  4  1  0
  2  5  1  0
  1  6  1  0
  1  7  1  0
  1  8  1  0
  2  9  1  0
  3 10  1  0
  3 11  1  0
  4 12  1  0
  5 13  1  0
  6 14  1  0
M  END
>  <_TriposChargeType>  (198) 
USER_CHARGES

>  <solvdG>  (198) 
-13.43

>  <fdG>  (198) 
-10.14

>  <fname>  (198) 
mobley_3259411

>  <cname>  (198) 
 glycerol

>  <dataset>  (198) 
FreeSolv

$$$$
naphthalen-2-amine
     RDKit          3D

 20 21  0  0  0  0  0  0  0  0999 V2000
   -0.4966   -2.0341    0.4940 C   0  0  0  0  0  0  0  0  0  0  0  0
    0.3500   -1.0275    0.0392 C   0  0  0  0  0  0  0  0  0  0  0  0
    1.6484   -1.3369   -0.3665 C   0  0  0  0  0  0  0  0  0  0  0  0
    2.1168   -2.6602   -0.3222 C   0  0  0  0  0  0  0  0  0  0  0  0
    3.4207   -2.9899   -0.7267 C   0  0  0  0  0  0  0  0  0  0  0  0
    3.8693   -4.3100   -0.6758 C   0  0  0  0  0  0  0  0  0  0  0  0
    3.0228   -5.3167   -0.2210 C   0  0  0  0  0  0  0  0  0  0  0  0
    1.7243   -5.0072    0.1848 C   0  0  0  0  0  0  0  0  0  0  0  0
    1.2560   -3.6839    0.1403 C   0  0  0  0  0  0  0  0  0  0  0  0
   -0.0479   -3.3542    0.5448 C   0  0  0  0  0  0  0  0  0  0  0  0
    5.1821   -4.6242   -1.0852 N   0  0  0  0  0  0  0  0  0  0  0  0
   -1.5075   -1.7926    0.8094 H   0  0  0  0  0  0  0  0  0  0  0  0
   -0.0001    0.0000    0.0003 H   0  0  0  0  0  0  0  0  0  0  0  0
    2.2920   -0.5337   -0.7194 H   0  0  0  0  0  0  0  0  0  0  0  0
    4.0918   -2.2104   -1.0841 H   0  0  0  0  0  0  0  0  0  0  0  0
    3.3630   -6.3482   -0.1773 H   0  0  0  0  0  0  0  0  0  0  0  0
    1.0795   -5.8097    0.5368 H   0  0  0  0  0  0  0  0  0  0  0  0
   -0.7268   -4.1255    0.9023 H   0  0  0  0  0  0  0  0  0  0  0  0
    5.7646   -3.8999   -1.4537 H   0  0  0  0  0  0  0  0  0  0  0  0
    5.4760   -5.5799   -1.0886 H   0  0  0  0  0  0  0  0  0  0  0  0
  1 10  2  0
  1  2  1  0
  2  3  2  0
  3  4  1  0
  4  9  2  0
  4  5  1  0
  5  6  2  0
  6  7  1  0
  7  8  2  0
  8  9  1  0
  9 10  1  0
  6 11  1  0
  1 12  1  0
  2 13  1  0
  3 14  1  0
  5 15  1  0
  7 16  1  0
  8 17  1  0
 10 18  1  0
 11 19  1  0
 11 20  1  0
M  END
>  <_TriposChargeType>  (199) 
USER_CHARGES

>  <solvdG>  (199) 
-7.47

>  <fdG>  (199) 
-8.0

>  <fname>  (199) 
mobley_3264884

>  <cname>  (199) 
 naphthalen-2-amine

>  <dataset>  (199) 
FreeSolv

$$$$
2-chloro-4-hydroxy-3,5-dimethoxy-benzaldehyde
     RDKit          3D

 23 23  0  0  0  0  0  0  0  0999 V2000
    1.3510   -2.1261   -2.1502 C   0  0  0  0  0  0  0  0  0  0  0  0
    1.9394   -1.0214   -1.4736 O   0  0  0  0  0  0  0  0  0  0  0  0
    1.8851   -1.0363   -0.1124 C   0  0  0  0  0  0  0  0  0  0  0  0
    2.9210   -1.6309    0.6081 C   0  0  0  0  0  0  0  0  0  0  0  0
    2.8783   -1.6520    2.0022 C   0  0  0  0  0  0  0  0  0  0  0  0
    1.7997   -1.0786    2.6757 C   0  0  0  0  0  0  0  0  0  0  0  0
    0.7638   -0.4841    1.9551 C   0  0  0  0  0  0  0  0  0  0  0  0
    0.8066   -0.4630    0.5610 C   0  0  0  0  0  0  0  0  0  0  0  0
   -0.2048    0.1178   -0.1454 O   0  0  0  0  0  0  0  0  0  0  0  0
   -0.2996    0.0818    2.5963 O   0  0  0  0  0  0  0  0  0  0  0  0
   -1.4161   -0.7625    2.8640 C   0  0  0  0  0  0  0  0  0  0  0  0
    1.7357   -1.1008    4.4065 Cl  0  0  0  0  0  0  0  0  0  0  0  0
    3.9875   -2.2815    2.7093 C   0  0  0  0  0  0  0  0  0  0  0  0
    5.1532   -1.8970    2.6045 O   0  0  0  0  0  0  0  0  0  0  0  0
    1.4607   -1.9938   -3.2293 H   0  0  0  0  0  0  0  0  0  0  0  0
    0.2926   -2.1945   -1.8863 H   0  0  0  0  0  0  0  0  0  0  0  0
    1.8607   -3.0428   -1.8441 H   0  0  0  0  0  0  0  0  0  0  0  0
    3.7598   -2.0747    0.0768 H   0  0  0  0  0  0  0  0  0  0  0  0
   -0.0289    0.0512   -1.0966 H   0  0  0  0  0  0  0  0  0  0  0  0
   -2.1850   -0.1841    3.3754 H   0  0  0  0  0  0  0  0  0  0  0  0
   -1.0903   -1.5976    3.4839 H   0  0  0  0  0  0  0  0  0  0  0  0
   -1.8035   -1.1350    1.9162 H   0  0  0  0  0  0  0  0  0  0  0  0
    3.7470   -3.1441    3.3652 H   0  0  0  0  0  0  0  0  0  0  0  0
  1  2  1  0
  2  3  1  0
  3  8  2  0
  3  4  1  0
  4  5  2  0
  5  6  1  0
  6  7  2  0
  7  8  1  0
  8  9  1  0
  7 10  1  0
 10 11  1  0
  6 12  1  0
  5 13  1  0
 13 14  2  0
  1 15  1  0
  1 16  1  0
  1 17  1  0
  4 18  1  0
  9 19  1  0
 11 20  1  0
 11 21  1  0
 11 22  1  0
 13 23  1  0
M  END
>  <_TriposChargeType>  (200) 
USER_CHARGES

>  <solvdG>  (200) 
-7.78

>  <fdG>  (200) 
-8.29

>  <fname>  (200) 
mobley_3265457

>  <cname>  (200) 
 2-chlorosyringaldehyde

>  <dataset>  (200) 
FreeSolv

$$$$
N-methyl-N-(2,2,2-trifluoroethyl)aniline
     RDKit          3D

 23 23  0  0  0  0  0  0  0  0999 V2000
    1.1034   -1.9184   -2.3120 C   0  0  0  0  0  0  0  0  0  0  0  0
    1.9290   -1.0140   -1.5220 N   0  0  0  0  0  0  0  0  0  0  0  0
    2.7910   -0.0762   -2.2303 C   0  0  0  0  0  0  0  0  0  0  0  0
    4.1456   -0.6732   -2.4727 C   0  0  0  0  0  0  0  0  0  0  0  0
    4.0229   -1.7941   -3.2177 F   0  0  0  0  0  0  0  0  0  0  0  0
    4.9553    0.1755   -3.1413 F   0  0  0  0  0  0  0  0  0  0  0  0
    4.7569   -1.0143   -1.3184 F   0  0  0  0  0  0  0  0  0  0  0  0
    1.8851   -1.0363   -0.1124 C   0  0  0  0  0  0  0  0  0  0  0  0
    2.9370   -0.4950    0.6266 C   0  0  0  0  0  0  0  0  0  0  0  0
    2.8932   -0.5160    2.0206 C   0  0  0  0  0  0  0  0  0  0  0  0
    1.7976   -1.0783    2.6756 C   0  0  0  0  0  0  0  0  0  0  0  0
    0.7457   -1.6197    1.9365 C   0  0  0  0  0  0  0  0  0  0  0  0
    0.7895   -1.5987    0.5425 C   0  0  0  0  0  0  0  0  0  0  0  0
    0.5129   -2.5603   -1.6531 H   0  0  0  0  0  0  0  0  0  0  0  0
    1.7332   -2.5490   -2.9455 H   0  0  0  0  0  0  0  0  0  0  0  0
    0.4231   -1.3486   -2.9506 H   0  0  0  0  0  0  0  0  0  0  0  0
    2.2863    0.1646   -3.1632 H   0  0  0  0  0  0  0  0  0  0  0  0
    2.8515    0.8164   -1.6118 H   0  0  0  0  0  0  0  0  0  0  0  0
    3.7950   -0.0535    0.1264 H   0  0  0  0  0  0  0  0  0  0  0  0
    3.7116   -0.0937    2.5967 H   0  0  0  0  0  0  0  0  0  0  0  0
    1.7632   -1.0954    3.7610 H   0  0  0  0  0  0  0  0  0  0  0  0
   -0.1079   -2.0566    2.4465 H   0  0  0  0  0  0  0  0  0  0  0  0
   -0.0357   -2.0233   -0.0238 H   0  0  0  0  0  0  0  0  0  0  0  0
  1  2  1  0
  2  3  1  0
  3  4  1  0
  4  5  1  0
  4  6  1  0
  4  7  1  0
  2  8  1  0
  8 13  2  0
  8  9  1  0
  9 10  2  0
 10 11  1  0
 11 12  2  0
 12 13  1  0
  1 14  1  0
  1 15  1  0
  1 16  1  0
  3 17  1  0
  3 18  1  0
  9 19  1  0
 10 20  1  0
 11 21  1  0
 12 22  1  0
 13 23  1  0
M  END
>  <_TriposChargeType>  (201) 
USER_CHARGES

>  <solvdG>  (201) 
-1.92

>  <fdG>  (201) 
-3.96

>  <fname>  (201) 
mobley_3266352

>  <cname>  (201) 
 N-methyl-N-(2,2,2-trifluoroethyl)aniline

>  <dataset>  (201) 
FreeSolv

$$$$
2-methoxypropane
     RDKit          3D

 15 14  0  0  0  0  0  0  0  0999 V2000
    1.0765    0.0499    0.1958 C   0  0  0  0  0  0  0  0  0  0  0  0
    1.3532    0.9191    1.4130 C   0  0  0  0  0  0  0  0  0  0  0  0
    2.8427    1.0382    1.6976 C   0  0  0  0  0  0  0  0  0  0  0  0
    0.8123    2.2184    1.1940 O   0  0  0  0  0  0  0  0  0  0  0  0
   -0.5869    2.2451    1.4354 C   0  0  0  0  0  0  0  0  0  0  0  0
    0.0028   -0.0291    0.0000 H   0  0  0  0  0  0  0  0  0  0  0  0
    1.5641    0.4693   -0.6907 H   0  0  0  0  0  0  0  0  0  0  0  0
    1.4833   -0.9585    0.3305 H   0  0  0  0  0  0  0  0  0  0  0  0
    0.8468    0.4961    2.2868 H   0  0  0  0  0  0  0  0  0  0  0  0
    3.0308    1.6651    2.5746 H   0  0  0  0  0  0  0  0  0  0  0  0
    3.3614    1.4749    0.8374 H   0  0  0  0  0  0  0  0  0  0  0  0
    3.2912    0.0533    1.8684 H   0  0  0  0  0  0  0  0  0  0  0  0
   -0.9645    3.2536    1.2579 H   0  0  0  0  0  0  0  0  0  0  0  0
   -0.7811    1.9445    2.4665 H   0  0  0  0  0  0  0  0  0  0  0  0
   -1.0744    1.5471    0.7529 H   0  0  0  0  0  0  0  0  0  0  0  0
  1  2  1  0
  2  3  1  0
  2  4  1  0
  4  5  1  0
  1  6  1  0
  1  7  1  0
  1  8  1  0
  2  9  1  0
  3 10  1  0
  3 11  1  0
  3 12  1  0
  5 13  1  0
  5 14  1  0
  5 15  1  0
M  END
>  <_TriposChargeType>  (202) 
USER_CHARGES

>  <solvdG>  (202) 
-2.01

>  <fdG>  (202) 
-0.66

>  <fname>  (202) 
mobley_3269565

>  <cname>  (202) 
 2-methoxypropane

>  <dataset>  (202) 
FreeSolv

$$$$
1,2,3,4-tetrachloro-5-(3,4,5-trichlorophenyl)benzene
     RDKit          3D

 22 23  0  0  0  0  0  0  0  0999 V2000
    1.8851   -1.0363   -0.1124 C   0  0  0  0  0  0  0  0  0  0  0  0
    2.9210   -1.6309    0.6081 C   0  0  0  0  0  0  0  0  0  0  0  0
    2.8783   -1.6520    2.0022 C   0  0  0  0  0  0  0  0  0  0  0  0
    1.7997   -1.0786    2.6757 C   0  0  0  0  0  0  0  0  0  0  0  0
    0.7638   -0.4841    1.9551 C   0  0  0  0  0  0  0  0  0  0  0  0
    0.8066   -0.4630    0.5610 C   0  0  0  0  0  0  0  0  0  0  0  0
   -0.4407    0.2561   -0.3994 Cl  0  0  0  0  0  0  0  0  0  0  0  0
   -0.5808    0.2293    2.7943 Cl  0  0  0  0  0  0  0  0  0  0  0  0
    1.8157   -1.1441    4.4050 Cl  0  0  0  0  0  0  0  0  0  0  0  0
    4.0395   -2.2261   -0.0907 C   0  0  0  0  0  0  0  0  0  0  0  0
    3.9448   -3.5736   -0.4385 C   0  0  0  0  0  0  0  0  0  0  0  0
    4.9953   -4.1952   -1.1134 C   0  0  0  0  0  0  0  0  0  0  0  0
    6.1407   -3.4694   -1.4405 C   0  0  0  0  0  0  0  0  0  0  0  0
    6.2354   -2.1219   -1.0926 C   0  0  0  0  0  0  0  0  0  0  0  0
    5.1848   -1.5003   -0.4177 C   0  0  0  0  0  0  0  0  0  0  0  0
    5.2838    0.1801    0.0299 Cl  0  0  0  0  0  0  0  0  0  0  0  0
    7.6654   -1.2138   -1.4994 Cl  0  0  0  0  0  0  0  0  0  0  0  0
    7.4438   -4.2588   -2.2825 Cl  0  0  0  0  0  0  0  0  0  0  0  0
    4.8017   -5.8685   -1.5128 Cl  0  0  0  0  0  0  0  0  0  0  0  0
    1.9218   -1.0199   -1.2005 H   0  0  0  0  0  0  0  0  0  0  0  0
    3.6877   -2.1171    2.5619 H   0  0  0  0  0  0  0  0  0  0  0  0
    3.0496   -4.1395   -0.1857 H   0  0  0  0  0  0  0  0  0  0  0  0
  1  6  2  0
  1  2  1  0
  2  3  2  0
  3  4  1  0
  4  5  2  0
  5  6  1  0
  6  7  1  0
  5  8  1  0
  4  9  1  0
  2 10  1  0
 10 15  1  0
 10 11  2  0
 11 12  1  0
 12 13  2  0
 13 14  1  0
 14 15  2  0
 15 16  1  0
 14 17  1  0
 13 18  1  0
 12 19  1  0
  1 20  1  0
  3 21  1  0
 11 22  1  0
M  END
>  <_TriposChargeType>  (203) 
USER_CHARGES

>  <solvdG>  (203) 
-3.17

>  <fdG>  (203) 
-0.82

>  <fname>  (203) 
mobley_3269819

>  <cname>  (203) 
 1,2,3,4-tetrachloro-5-(3,4,5-trichlorophenyl)benzene

>  <dataset>  (203) 
FreeSolv

$$$$
2-[(1R)-1-methylpropyl]-4,6-dinitro-phenol
     RDKit          3D

 29 29  0  0  0  0  0  0  0  0999 V2000
   -0.1704    3.0593    2.3977 C   0  0  0  0  0  0  0  0  0  0  0  0
    0.0340    1.6084    1.9791 C   0  0  0  0  0  0  0  0  0  0  0  0
   -0.9885    0.6449    2.6154 C   0  0  1  0  0  0  0  0  0  0  0  0
   -1.9881    0.9680    2.2938 H   0  0  0  0  0  0  0  0  0  0  0  0
   -0.7897   -0.7770    2.0762 C   0  0  0  0  0  0  0  0  0  0  0  0
   -0.9440    0.6412    4.1338 C   0  0  0  0  0  0  0  0  0  0  0  0
    0.2384    0.2784    4.7788 C   0  0  0  0  0  0  0  0  0  0  0  0
    0.2986    0.2707    6.1723 C   0  0  0  0  0  0  0  0  0  0  0  0
   -0.8236    0.6256    6.9209 C   0  0  0  0  0  0  0  0  0  0  0  0
   -2.0060    0.9883    6.2759 C   0  0  0  0  0  0  0  0  0  0  0  0
   -2.0662    0.9960    4.8824 C   0  0  0  0  0  0  0  0  0  0  0  0
   -3.2191    1.3519    4.2443 O   0  0  0  0  0  0  0  0  0  0  0  0
   -3.1397    1.3470    7.0562 N   0  0  0  0  0  4  0  0  0  0  0  0
   -3.9485    0.4517    7.3968 O   0  0  0  0  0  0  0  0  0  0  0  0
   -3.2966    2.5478    7.3802 O   0  0  0  0  0  1  0  0  0  0  0  0
    1.5016   -0.1012    6.8289 N   0  0  0  0  0  4  0  0  0  0  0  0
    1.5346   -0.1014    8.0832 O   0  0  0  0  0  0  0  0  0  0  0  0
    2.4987   -0.4192    6.1368 O   0  0  0  0  0  1  0  0  0  0  0  0
    0.5797    3.6969    1.9186 H   0  0  0  0  0  0  0  0  0  0  0  0
   -1.1574    3.4284    2.1029 H   0  0  0  0  0  0  0  0  0  0  0  0
   -0.0678    3.1729    3.4816 H   0  0  0  0  0  0  0  0  0  0  0  0
    0.0064    1.5442    0.8848 H   0  0  0  0  0  0  0  0  0  0  0  0
    1.0447    1.3075    2.2827 H   0  0  0  0  0  0  0  0  0  0  0  0
   -1.5043   -1.4835    2.5124 H   0  0  0  0  0  0  0  0  0  0  0  0
   -0.9221   -0.7988    0.9891 H   0  0  0  0  0  0  0  0  0  0  0  0
    0.2195   -1.1429    2.2968 H   0  0  0  0  0  0  0  0  0  0  0  0
    1.1120    0.0022    4.1921 H   0  0  0  0  0  0  0  0  0  0  0  0
   -0.7759    0.6196    8.0085 H   0  0  0  0  0  0  0  0  0  0  0  0
   -3.9043    1.5716    4.8936 H   0  0  0  0  0  0  0  0  0  0  0  0
  1  2  1  0
  2  3  1  0
  3  4  1  1
  3  5  1  0
  3  6  1  0
  6 11  2  0
  6  7  1  0
  7  8  2  0
  8  9  1  0
  9 10  2  0
 10 11  1  0
 11 12  1  0
 10 13  1  0
 13 14  2  0
 13 15  1  0
  8 16  1  0
 16 17  2  0
 16 18  1  0
  1 19  1  0
  1 20  1  0
  1 21  1  0
  2 22  1  0
  2 23  1  0
  5 24  1  0
  5 25  1  0
  5 26  1  0
  7 27  1  0
  9 28  1  0
 12 29  1  0
M  CHG  4  13   1  15  -1  16   1  18  -1
M  END
>  <_TriposChargeType>  (204) 
USER_CHARGES

>  <solvdG>  (204) 
-6.23

>  <fdG>  (204) 
-5.38

>  <fname>  (204) 
mobley_3274817

>  <cname>  (204) 
 2-[(1R)-1-methylpropyl]-4,6-dinitro-phenolate

>  <dataset>  (204) 
FreeSolv

$$$$
nonan-5-one
     RDKit          3D

 28 27  0  0  0  0  0  0  0  0999 V2000
   -1.6202    1.5627    4.2479 C   0  0  0  0  0  0  0  0  0  0  0  0
   -1.7871    1.6210    2.7378 C   0  0  0  0  0  0  0  0  0  0  0  0
   -0.9426    0.5563    2.0394 C   0  0  0  0  0  0  0  0  0  0  0  0
   -1.1133    0.6185    0.5232 C   0  0  0  0  0  0  0  0  0  0  0  0
   -0.2845   -0.4302   -0.2024 C   0  0  0  0  0  0  0  0  0  0  0  0
    0.4352   -1.2271    0.3974 O   0  0  0  0  0  0  0  0  0  0  0  0
   -0.4341   -0.4499   -1.7169 C   0  0  0  0  0  0  0  0  0  0  0  0
    0.4139   -1.5162   -2.4084 C   0  0  0  0  0  0  0  0  0  0  0  0
    0.2379   -1.5063   -3.9289 C   0  0  0  0  0  0  0  0  0  0  0  0
    1.0912   -2.5754   -4.5931 C   0  0  0  0  0  0  0  0  0  0  0  0
   -2.2330    2.3328    4.7270 H   0  0  0  0  0  0  0  0  0  0  0  0
   -0.5772    1.7317    4.5343 H   0  0  0  0  0  0  0  0  0  0  0  0
   -1.9310    0.5889    4.6395 H   0  0  0  0  0  0  0  0  0  0  0  0
   -1.4987    2.6172    2.3825 H   0  0  0  0  0  0  0  0  0  0  0  0
   -2.8452    1.4808    2.4874 H   0  0  0  0  0  0  0  0  0  0  0  0
    0.1146    0.6950    2.2978 H   0  0  0  0  0  0  0  0  0  0  0  0
   -1.2279   -0.4388    2.4028 H   0  0  0  0  0  0  0  0  0  0  0  0
   -0.8063    1.6035    0.1546 H   0  0  0  0  0  0  0  0  0  0  0  0
   -2.1644    0.4583    0.2587 H   0  0  0  0  0  0  0  0  0  0  0  0
   -0.1810    0.5417   -2.1079 H   0  0  0  0  0  0  0  0  0  0  0  0
   -1.4924   -0.6403   -1.9292 H   0  0  0  0  0  0  0  0  0  0  0  0
    0.1143   -2.4992   -2.0245 H   0  0  0  0  0  0  0  0  0  0  0  0
    1.4725   -1.3847   -2.1543 H   0  0  0  0  0  0  0  0  0  0  0  0
   -0.8146   -1.6799   -4.1818 H   0  0  0  0  0  0  0  0  0  0  0  0
    0.5111   -0.5280   -4.3393 H   0  0  0  0  0  0  0  0  0  0  0  0
    0.9512   -2.5517   -5.6784 H   0  0  0  0  0  0  0  0  0  0  0  0
    2.1536   -2.4151   -4.3838 H   0  0  0  0  0  0  0  0  0  0  0  0
    0.8171   -3.5737   -4.2373 H   0  0  0  0  0  0  0  0  0  0  0  0
  1  2  1  0
  2  3  1  0
  3  4  1  0
  4  5  1  0
  5  6  2  0
  5  7  1  0
  7  8  1  0
  8  9  1  0
  9 10  1  0
  1 11  1  0
  1 12  1  0
  1 13  1  0
  2 14  1  0
  2 15  1  0
  3 16  1  0
  3 17  1  0
  4 18  1  0
  4 19  1  0
  7 20  1  0
  7 21  1  0
  8 22  1  0
  8 23  1  0
  9 24  1  0
  9 25  1  0
 10 26  1  0
 10 27  1  0
 10 28  1  0
M  END
>  <_TriposChargeType>  (205) 
USER_CHARGES

>  <solvdG>  (205) 
-2.64

>  <fdG>  (205) 
-2.36

>  <fname>  (205) 
mobley_3318135

>  <cname>  (205) 
 nonan-5-one

>  <dataset>  (205) 
FreeSolv

$$$$
1,1-dioxido-2,3,4,5-tetrahydrothiophene
     RDKit          3D

 15 15  0  0  0  0  0  0  0  0999 V2000
   -1.1168    1.4379   -0.1714 C   0  0  0  0  0  0  0  0  0  0  0  0
    0.0306    1.3978   -1.1787 C   0  0  0  0  0  0  0  0  0  0  0  0
    1.1320    0.5655   -0.5318 C   0  0  0  0  0  0  0  0  0  0  0  0
    0.2815   -0.7350    0.3500 S   0  0  0  0  0  4  0  0  0  0  0  0
   -1.3468   -0.0047    0.2645 C   0  0  0  0  0  0  0  0  0  0  0  0
    0.7258   -0.7266    1.7282 O   0  0  0  0  0  1  0  0  0  0  0  0
    0.2937   -1.9349   -0.4607 O   0  0  0  0  0  1  0  0  0  0  0  0
   -2.0227    1.8754   -0.6011 H   0  0  0  0  0  0  0  0  0  0  0  0
   -0.8252    2.0470    0.6929 H   0  0  0  0  0  0  0  0  0  0  0  0
   -0.3073    0.9159   -2.1042 H   0  0  0  0  0  0  0  0  0  0  0  0
    0.3854    2.4011   -1.4325 H   0  0  0  0  0  0  0  0  0  0  0  0
    1.8145    0.1314   -1.2652 H   0  0  0  0  0  0  0  0  0  0  0  0
    1.6921    1.1556    0.1995 H   0  0  0  0  0  0  0  0  0  0  0  0
   -1.9206   -0.5539   -0.4877 H   0  0  0  0  0  0  0  0  0  0  0  0
   -1.8381   -0.0759    1.2369 H   0  0  0  0  0  0  0  0  0  0  0  0
  1  5  1  0
  1  2  1  0
  2  3  1  0
  3  4  1  0
  4  5  1  0
  4  6  1  0
  4  7  1  0
  1  8  1  0
  1  9  1  0
  2 10  1  0
  2 11  1  0
  3 12  1  0
  3 13  1  0
  5 14  1  0
  5 15  1  0
M  CHG  2   6  -1   7  -1
M  END
>  <_TriposChargeType>  (206) 
USER_CHARGES

>  <solvdG>  (206) 
-8.61

>  <fdG>  (206) 
-9.62

>  <fname>  (206) 
mobley_3323117

>  <cname>  (206) 
 sulfolane

>  <dataset>  (206) 
FreeSolv

$$$$
trimethoxymethylbenzene
     RDKit          3D

 27 27  0  0  0  0  0  0  0  0999 V2000
    0.7888    0.7965   -0.3489 C   0  0  0  0  0  0  0  0  0  0  0  0
    0.7053    1.8843    0.5666 O   0  0  0  0  0  0  0  0  0  0  0  0
   -0.5845    2.5417    0.6462 C   0  0  0  0  0  0  0  0  0  0  0  0
   -0.9242    3.0962   -0.7437 C   0  0  0  0  0  0  0  0  0  0  0  0
   -0.0829    4.0318   -1.3459 C   0  0  0  0  0  0  0  0  0  0  0  0
   -0.3915    4.5361   -2.6092 C   0  0  0  0  0  0  0  0  0  0  0  0
   -1.5415    4.1049   -3.2704 C   0  0  0  0  0  0  0  0  0  0  0  0
   -2.3828    3.1693   -2.6683 C   0  0  0  0  0  0  0  0  0  0  0  0
   -2.0742    2.6650   -1.4049 C   0  0  0  0  0  0  0  0  0  0  0  0
   -1.6075    1.6330    1.1030 O   0  0  0  0  0  0  0  0  0  0  0  0
   -1.3674    1.0823    2.3937 C   0  0  0  0  0  0  0  0  0  0  0  0
   -0.4333    3.6623    1.5538 O   0  0  0  0  0  0  0  0  0  0  0  0
   -1.6034    4.4453    1.7689 C   0  0  0  0  0  0  0  0  0  0  0  0
    1.7980    0.3780   -0.3276 H   0  0  0  0  0  0  0  0  0  0  0  0
    0.5495    1.1474   -1.3559 H   0  0  0  0  0  0  0  0  0  0  0  0
    0.0715    0.0272   -0.0532 H   0  0  0  0  0  0  0  0  0  0  0  0
    0.8149    4.3737   -0.8376 H   0  0  0  0  0  0  0  0  0  0  0  0
    0.2637    5.2645   -3.0781 H   0  0  0  0  0  0  0  0  0  0  0  0
   -1.7820    4.4973   -4.2542 H   0  0  0  0  0  0  0  0  0  0  0  0
   -3.2785    2.8339   -3.1828 H   0  0  0  0  0  0  0  0  0  0  0  0
   -2.7356    1.9361   -0.9441 H   0  0  0  0  0  0  0  0  0  0  0  0
   -2.1868    0.4121    2.6541 H   0  0  0  0  0  0  0  0  0  0  0  0
   -1.2922    1.8924    3.1195 H   0  0  0  0  0  0  0  0  0  0  0  0
   -0.4310    0.5251    2.3651 H   0  0  0  0  0  0  0  0  0  0  0  0
   -1.3699    5.2522    2.4635 H   0  0  0  0  0  0  0  0  0  0  0  0
   -2.3895    3.8083    2.1746 H   0  0  0  0  0  0  0  0  0  0  0  0
   -1.9226    4.8620    0.8138 H   0  0  0  0  0  0  0  0  0  0  0  0
  1  2  1  0
  2  3  1  0
  3  4  1  0
  4  9  2  0
  4  5  1  0
  5  6  2  0
  6  7  1  0
  7  8  2  0
  8  9  1  0
  3 10  1  0
 10 11  1  0
  3 12  1  0
 12 13  1  0
  1 14  1  0
  1 15  1  0
  1 16  1  0
  5 17  1  0
  6 18  1  0
  7 19  1  0
  8 20  1  0
  9 21  1  0
 11 22  1  0
 11 23  1  0
 11 24  1  0
 13 25  1  0
 13 26  1  0
 13 27  1  0
M  END
>  <_TriposChargeType>  (207) 
USER_CHARGES

>  <solvdG>  (207) 
-4.04

>  <fdG>  (207) 
-5.56

>  <fname>  (207) 
mobley_3325209

>  <cname>  (207) 
 trimethoxymethylbenzene

>  <dataset>  (207) 
FreeSolv

$$$$
2-methoxy-4-propyl-phenol
     RDKit          3D

 26 26  0  0  0  0  0  0  0  0999 V2000
    1.3087   -2.2305   -3.7220 C   0  0  0  0  0  0  0  0  0  0  0  0
    1.2606   -2.2534   -2.2025 C   0  0  0  0  0  0  0  0  0  0  0  0
    1.9313   -1.0156   -1.6029 C   0  0  0  0  0  0  0  0  0  0  0  0
    1.8851   -1.0363   -0.1124 C   0  0  0  0  0  0  0  0  0  0  0  0
    2.9210   -1.6309    0.6081 C   0  0  0  0  0  0  0  0  0  0  0  0
    2.8783   -1.6520    2.0022 C   0  0  0  0  0  0  0  0  0  0  0  0
    1.7997   -1.0786    2.6757 C   0  0  0  0  0  0  0  0  0  0  0  0
    0.7638   -0.4841    1.9551 C   0  0  0  0  0  0  0  0  0  0  0  0
    0.8066   -0.4630    0.5610 C   0  0  0  0  0  0  0  0  0  0  0  0
   -0.2945    0.0799    2.6014 O   0  0  0  0  0  0  0  0  0  0  0  0
   -1.3110    0.6665    1.7910 C   0  0  0  0  0  0  0  0  0  0  0  0
    1.7689   -1.1059    4.0372 O   0  0  0  0  0  0  0  0  0  0  0  0
    0.8272   -3.1189   -4.1430 H   0  0  0  0  0  0  0  0  0  0  0  0
    0.8022   -1.3442   -4.1172 H   0  0  0  0  0  0  0  0  0  0  0  0
    2.3469   -2.2110   -4.0682 H   0  0  0  0  0  0  0  0  0  0  0  0
    1.7555   -3.1632   -1.8414 H   0  0  0  0  0  0  0  0  0  0  0  0
    0.2148   -2.3113   -1.8773 H   0  0  0  0  0  0  0  0  0  0  0  0
    1.4391   -0.1083   -1.9764 H   0  0  0  0  0  0  0  0  0  0  0  0
    2.9741   -0.9574   -1.9409 H   0  0  0  0  0  0  0  0  0  0  0  0
    3.7652   -2.0807    0.0919 H   0  0  0  0  0  0  0  0  0  0  0  0
    3.6886   -2.1162    2.5579 H   0  0  0  0  0  0  0  0  0  0  0  0
   -0.0022    0.0002    0.0015 H   0  0  0  0  0  0  0  0  0  0  0  0
   -2.0875    1.0750    2.4366 H   0  0  0  0  0  0  0  0  0  0  0  0
   -1.7233   -0.0963    1.1314 H   0  0  0  0  0  0  0  0  0  0  0  0
   -0.8635    1.4645    1.2001 H   0  0  0  0  0  0  0  0  0  0  0  0
    0.9645   -0.6726    4.3631 H   0  0  0  0  0  0  0  0  0  0  0  0
  1  2  1  0
  2  3  1  0
  3  4  1  0
  4  9  2  0
  4  5  1  0
  5  6  2  0
  6  7  1  0
  7  8  2  0
  8  9  1  0
  8 10  1  0
 10 11  1  0
  7 12  1  0
  1 13  1  0
  1 14  1  0
  1 15  1  0
  2 16  1  0
  2 17  1  0
  3 18  1  0
  3 19  1  0
  5 20  1  0
  6 21  1  0
  9 22  1  0
 11 23  1  0
 11 24  1  0
 11 25  1  0
 12 26  1  0
M  END
>  <_TriposChargeType>  (208) 
USER_CHARGES

>  <solvdG>  (208) 
-5.26

>  <fdG>  (208) 
-4.13

>  <fname>  (208) 
mobley_3359593

>  <cname>  (208) 
 4-propylguaiacol

>  <dataset>  (208) 
FreeSolv

$$$$
1,1-difluoroethane
     RDKit          3D

  8  7  0  0  0  0  0  0  0  0999 V2000
   -0.3709    0.2934   -0.6159 C   0  0  0  0  0  0  0  0  0  0  0  0
    0.3057   -0.3499    0.5679 C   0  0  0  0  0  0  0  0  0  0  0  0
    0.0615    0.3815    1.6825 F   0  0  0  0  0  0  0  0  0  0  0  0
    1.6481   -0.3449    0.3808 F   0  0  0  0  0  0  0  0  0  0  0  0
   -0.1806   -0.2890   -1.5230 H   0  0  0  0  0  0  0  0  0  0  0  0
   -1.4535    0.3373   -0.4675 H   0  0  0  0  0  0  0  0  0  0  0  0
    0.0137    1.3038   -0.7807 H   0  0  0  0  0  0  0  0  0  0  0  0
   -0.0285   -1.3774    0.7339 H   0  0  0  0  0  0  0  0  0  0  0  0
  1  2  1  0
  2  3  1  0
  2  4  1  0
  1  5  1  0
  1  6  1  0
  1  7  1  0
  2  8  1  0
M  END
>  <_TriposChargeType>  (209) 
USER_CHARGES

>  <solvdG>  (209) 
-0.11

>  <fdG>  (209) 
0.23

>  <fname>  (209) 
mobley_3370989

>  <cname>  (209) 
 1,1-difluoroethane

>  <dataset>  (209) 
FreeSolv

$$$$
5-fluoro-1H-pyrimidine-2,4-dione
     RDKit          3D

 12 12  0  0  0  0  0  0  0  0999 V2000
    0.6610    1.3814   -0.0454 C   0  0  0  0  0  0  0  0  0  0  0  0
   -0.2001    0.9155    0.8573 C   0  0  0  0  0  0  0  0  0  0  0  0
   -0.7437   -0.4518    0.7476 C   0  0  0  0  0  0  0  0  0  0  0  0
   -1.5372   -0.8927    1.5724 O   0  0  0  0  0  0  0  0  0  0  0  0
   -0.2730   -1.1575   -0.3544 N   0  0  0  0  0  0  0  0  0  0  0  0
    0.6325   -0.6865   -1.3140 C   0  0  0  0  0  0  0  0  0  0  0  0
    1.0071   -1.3718   -2.2663 O   0  0  0  0  0  0  0  0  0  0  0  0
    1.0723    0.6151   -1.1019 N   0  0  0  0  0  0  0  0  0  0  0  0
   -0.6189    1.6484    1.9046 F   0  0  0  0  0  0  0  0  0  0  0  0
    1.0776    2.3791    0.0083 H   0  0  0  0  0  0  0  0  0  0  0  0
   -0.6179   -2.1056   -0.4760 H   0  0  0  0  0  0  0  0  0  0  0  0
    1.7313    1.0249   -1.7571 H   0  0  0  0  0  0  0  0  0  0  0  0
  1  8  1  0
  1  2  2  0
  2  3  1  0
  3  4  2  0
  3  5  1  0
  5  6  1  0
  6  7  2  0
  6  8  1  0
  2  9  1  0
  1 10  1  0
  5 11  1  0
  8 12  1  0
M  END
>  <_TriposChargeType>  (210) 
USER_CHARGES

>  <solvdG>  (210) 
-16.92

>  <fdG>  (210) 
-16.37

>  <fname>  (210) 
mobley_337666

>  <cname>  (210) 
 5-fluorouracil

>  <dataset>  (210) 
FreeSolv

$$$$
nonan-1-ol
     RDKit          3D

 30 29  0  0  0  0  0  0  0  0999 V2000
   -1.8710    1.8431    4.1149 C   0  0  0  0  0  0  0  0  0  0  0  0
   -2.3272    1.9106    2.6654 C   0  0  0  0  0  0  0  0  0  0  0  0
   -1.9724    3.2559    2.0317 C   0  0  0  0  0  0  0  0  0  0  0  0
   -2.4110    3.3758    0.5690 C   0  0  0  0  0  0  0  0  0  0  0  0
   -2.0823    4.7035   -0.1204 C   0  0  0  0  0  0  0  0  0  0  0  0
   -2.5441    4.7640   -1.5779 C   0  0  0  0  0  0  0  0  0  0  0  0
   -2.1905    6.1099   -2.2158 C   0  0  0  0  0  0  0  0  0  0  0  0
   -2.6524    6.1714   -3.6747 C   0  0  0  0  0  0  0  0  0  0  0  0
   -2.3110    7.5033   -4.3315 C   0  0  0  0  0  0  0  0  0  0  0  0
   -2.7595    7.5081   -5.6791 O   0  0  0  0  0  0  0  0  0  0  0  0
   -2.1338    0.8737    4.5500 H   0  0  0  0  0  0  0  0  0  0  0  0
   -0.7860    1.9664    4.1914 H   0  0  0  0  0  0  0  0  0  0  0  0
   -2.3493    2.6251    4.7132 H   0  0  0  0  0  0  0  0  0  0  0  0
   -3.4098    1.7476    2.6322 H   0  0  0  0  0  0  0  0  0  0  0  0
   -1.8559    1.0971    2.1019 H   0  0  0  0  0  0  0  0  0  0  0  0
   -2.4049    4.0716    2.6225 H   0  0  0  0  0  0  0  0  0  0  0  0
   -0.8844    3.3940    2.0705 H   0  0  0  0  0  0  0  0  0  0  0  0
   -3.4948    3.2152    0.5104 H   0  0  0  0  0  0  0  0  0  0  0  0
   -1.9487    2.5584    0.0015 H   0  0  0  0  0  0  0  0  0  0  0  0
   -2.5722    5.5074    0.4438 H   0  0  0  0  0  0  0  0  0  0  0  0
   -1.0058    4.9013   -0.0624 H   0  0  0  0  0  0  0  0  0  0  0  0
   -3.6285    4.6080   -1.6265 H   0  0  0  0  0  0  0  0  0  0  0  0
   -2.0725    3.9607   -2.1548 H   0  0  0  0  0  0  0  0  0  0  0  0
   -2.6630    6.9208   -1.6483 H   0  0  0  0  0  0  0  0  0  0  0  0
   -1.1064    6.2649   -2.1602 H   0  0  0  0  0  0  0  0  0  0  0  0
   -2.1720    5.3588   -4.2331 H   0  0  0  0  0  0  0  0  0  0  0  0
   -3.7360    6.0147   -3.7252 H   0  0  0  0  0  0  0  0  0  0  0  0
   -2.8089    8.3208   -3.8006 H   0  0  0  0  0  0  0  0  0  0  0  0
   -1.2310    7.6818   -4.3178 H   0  0  0  0  0  0  0  0  0  0  0  0
   -2.5202    8.3723   -6.0520 H   0  0  0  0  0  0  0  0  0  0  0  0
  1  2  1  0
  2  3  1  0
  3  4  1  0
  4  5  1  0
  5  6  1  0
  6  7  1  0
  7  8  1  0
  8  9  1  0
  9 10  1  0
  1 11  1  0
  1 12  1  0
  1 13  1  0
  2 14  1  0
  2 15  1  0
  3 16  1  0
  3 17  1  0
  4 18  1  0
  4 19  1  0
  5 20  1  0
  5 21  1  0
  6 22  1  0
  6 23  1  0
  7 24  1  0
  7 25  1  0
  8 26  1  0
  8 27  1  0
  9 28  1  0
  9 29  1  0
 10 30  1  0
M  END
>  <_TriposChargeType>  (211) 
USER_CHARGES

>  <solvdG>  (211) 
-3.88

>  <fdG>  (211) 
-2.56

>  <fname>  (211) 
mobley_3378420

>  <cname>  (211) 
 nonan-1-ol

>  <dataset>  (211) 
FreeSolv

$$$$
tetrahydropyran
     RDKit          3D

 16 16  0  0  0  0  0  0  0  0999 V2000
   -0.4603   -0.9422   -1.0405 C   0  0  0  0  0  0  0  0  0  0  0  0
   -0.4944   -1.2936    0.4430 C   0  0  0  0  0  0  0  0  0  0  0  0
    0.5547   -0.4986    1.2095 C   0  0  0  0  0  0  0  0  0  0  0  0
    0.3821    0.9027    0.9978 O   0  0  0  0  0  0  0  0  0  0  0  0
    0.5337    1.2625   -0.3753 C   0  0  0  0  0  0  0  0  0  0  0  0
   -0.5158    0.5693   -1.2346 C   0  0  0  0  0  0  0  0  0  0  0  0
   -1.2972   -1.4205   -1.5610 H   0  0  0  0  0  0  0  0  0  0  0  0
    0.4632   -1.3324   -1.4856 H   0  0  0  0  0  0  0  0  0  0  0  0
   -1.4881   -1.0489    0.8382 H   0  0  0  0  0  0  0  0  0  0  0  0
   -0.3370   -2.3679    0.5838 H   0  0  0  0  0  0  0  0  0  0  0  0
    0.4551   -0.6887    2.2829 H   0  0  0  0  0  0  0  0  0  0  0  0
    1.5696   -0.7895    0.9141 H   0  0  0  0  0  0  0  0  0  0  0  0
    0.4185    2.3484   -0.4506 H   0  0  0  0  0  0  0  0  0  0  0  0
    1.5484    1.0130   -0.7074 H   0  0  0  0  0  0  0  0  0  0  0  0
   -1.5109    0.9238   -0.9391 H   0  0  0  0  0  0  0  0  0  0  0  0
   -0.3732    0.8234   -2.2901 H   0  0  0  0  0  0  0  0  0  0  0  0
  1  6  1  0
  1  2  1  0
  2  3  1  0
  3  4  1  0
  4  5  1  0
  5  6  1  0
  1  7  1  0
  1  8  1  0
  2  9  1  0
  2 10  1  0
  3 11  1  0
  3 12  1  0
  5 13  1  0
  5 14  1  0
  6 15  1  0
  6 16  1  0
M  END
>  <_TriposChargeType>  (212) 
USER_CHARGES

>  <solvdG>  (212) 
-3.12

>  <fdG>  (212) 
-1.81

>  <fname>  (212) 
mobley_3395921

>  <cname>  (212) 
 tetrahydropyran

>  <dataset>  (212) 
FreeSolv

$$$$
iodobenzene
     RDKit          3D

 12 12  0  0  0  0  0  0  0  0999 V2000
    1.8851   -1.0363   -0.1124 C   0  0  0  0  0  0  0  0  0  0  0  0
    2.9210   -1.6309    0.6081 C   0  0  0  0  0  0  0  0  0  0  0  0
    2.8783   -1.6520    2.0022 C   0  0  0  0  0  0  0  0  0  0  0  0
    1.7997   -1.0786    2.6757 C   0  0  0  0  0  0  0  0  0  0  0  0
    0.7638   -0.4841    1.9551 C   0  0  0  0  0  0  0  0  0  0  0  0
    0.8066   -0.4630    0.5610 C   0  0  0  0  0  0  0  0  0  0  0  0
    1.7360   -1.1105    4.7518 I   0  0  0  0  0  0  0  0  0  0  0  0
    1.9183   -1.0200   -1.1979 H   0  0  0  0  0  0  0  0  0  0  0  0
    3.7608   -2.0771    0.0836 H   0  0  0  0  0  0  0  0  0  0  0  0
    3.6956   -2.1202    2.5446 H   0  0  0  0  0  0  0  0  0  0  0  0
   -0.0855   -0.0318    2.4604 H   0  0  0  0  0  0  0  0  0  0  0  0
    0.0001   -0.0000   -0.0002 H   0  0  0  0  0  0  0  0  0  0  0  0
  1  6  2  0
  1  2  1  0
  2  3  2  0
  3  4  1  0
  4  5  2  0
  5  6  1  0
  4  7  1  0
  1  8  1  0
  2  9  1  0
  3 10  1  0
  5 11  1  0
  6 12  1  0
M  END
>  <_TriposChargeType>  (213) 
USER_CHARGES

>  <solvdG>  (213) 
-1.74

>  <fdG>  (213) 
-1.06

>  <fname>  (213) 
mobley_3398536

>  <cname>  (213) 
 iodobenzene

>  <dataset>  (213) 
FreeSolv

$$$$
2-methylpentan-2-ol
     RDKit          3D

 21 20  0  0  0  0  0  0  0  0999 V2000
    1.0887   -0.1580   -0.5331 C   0  0  0  0  0  0  0  0  0  0  0  0
    0.8600   -1.1431   -1.6703 C   0  0  0  0  0  0  0  0  0  0  0  0
    0.4071   -2.5093   -1.1412 C   0  0  0  0  0  0  0  0  0  0  0  0
    0.1536   -3.5662   -2.2352 C   0  0  0  0  0  0  0  0  0  0  0  0
   -0.2913   -4.8812   -1.5864 C   0  0  0  0  0  0  0  0  0  0  0  0
    1.3843   -3.8070   -3.1121 C   0  0  0  0  0  0  0  0  0  0  0  0
   -0.9126   -3.1052   -3.0679 O   0  0  0  0  0  0  0  0  0  0  0  0
    1.4118    0.8154   -0.9162 H   0  0  0  0  0  0  0  0  0  0  0  0
    1.8528   -0.5272    0.1582 H   0  0  0  0  0  0  0  0  0  0  0  0
    0.1631   -0.0105    0.0320 H   0  0  0  0  0  0  0  0  0  0  0  0
    0.1075   -0.7303   -2.3512 H   0  0  0  0  0  0  0  0  0  0  0  0
    1.7929   -1.2446   -2.2348 H   0  0  0  0  0  0  0  0  0  0  0  0
    1.1539   -2.8856   -0.4304 H   0  0  0  0  0  0  0  0  0  0  0  0
   -0.5233   -2.3577   -0.5775 H   0  0  0  0  0  0  0  0  0  0  0  0
   -0.4780   -5.6498   -2.3450 H   0  0  0  0  0  0  0  0  0  0  0  0
   -1.2347   -4.7487   -1.0443 H   0  0  0  0  0  0  0  0  0  0  0  0
    0.4614   -5.2607   -0.8877 H   0  0  0  0  0  0  0  0  0  0  0  0
    1.1861   -4.5595   -3.8824 H   0  0  0  0  0  0  0  0  0  0  0  0
    2.2148   -4.2027   -2.5156 H   0  0  0  0  0  0  0  0  0  0  0  0
    1.7197   -2.8844   -3.5965 H   0  0  0  0  0  0  0  0  0  0  0  0
   -1.0466   -3.7881   -3.7415 H   0  0  0  0  0  0  0  0  0  0  0  0
  1  2  1  0
  2  3  1  0
  3  4  1  0
  4  5  1  0
  4  6  1  0
  4  7  1  0
  1  8  1  0
  1  9  1  0
  1 10  1  0
  2 11  1  0
  2 12  1  0
  3 13  1  0
  3 14  1  0
  5 15  1  0
  5 16  1  0
  5 17  1  0
  6 18  1  0
  6 19  1  0
  6 20  1  0
  7 21  1  0
M  END
>  <_TriposChargeType>  (214) 
USER_CHARGES

>  <solvdG>  (214) 
-3.92

>  <fdG>  (214) 
-2.78

>  <fname>  (214) 
mobley_3414356

>  <cname>  (214) 
 2-methylpentan-2-ol

>  <dataset>  (214) 
FreeSolv

$$$$
chloro(fluoro)methane
     RDKit          3D

  5  4  0  0  0  0  0  0  0  0999 V2000
    0.1087   -0.0108   -0.0646 C   0  0  0  0  0  0  0  0  0  0  0  0
   -0.6737    0.0934   -1.1682 F   0  0  0  0  0  0  0  0  0  0  0  0
   -0.8928    0.0735    1.3860 Cl  0  0  0  0  0  0  0  0  0  0  0  0
    0.8258    0.8132   -0.0612 H   0  0  0  0  0  0  0  0  0  0  0  0
    0.6320   -0.9694   -0.0920 H   0  0  0  0  0  0  0  0  0  0  0  0
  1  2  1  0
  1  3  1  0
  1  4  1  0
  1  5  1  0
M  END
>  <_TriposChargeType>  (215) 
USER_CHARGES

>  <solvdG>  (215) 
-0.77

>  <fdG>  (215) 
-0.17

>  <fname>  (215) 
mobley_3425174

>  <cname>  (215) 
 chloro-fluoro-methane

>  <dataset>  (215) 
FreeSolv

$$$$
1,2,3-trimethylbenzene
     RDKit          3D

 21 21  0  0  0  0  0  0  0  0999 V2000
    1.9545   -1.0286   -1.6045 C   0  0  0  0  0  0  0  0  0  0  0  0
    1.8851   -1.0363   -0.1124 C   0  0  0  0  0  0  0  0  0  0  0  0
    2.9210   -1.6309    0.6081 C   0  0  0  0  0  0  0  0  0  0  0  0
    2.8783   -1.6520    2.0022 C   0  0  0  0  0  0  0  0  0  0  0  0
    1.7997   -1.0786    2.6757 C   0  0  0  0  0  0  0  0  0  0  0  0
    0.7638   -0.4841    1.9551 C   0  0  0  0  0  0  0  0  0  0  0  0
    0.8066   -0.4630    0.5610 C   0  0  0  0  0  0  0  0  0  0  0  0
   -0.3054    0.1732   -0.2113 C   0  0  0  0  0  0  0  0  0  0  0  0
   -0.3795    0.1229    2.7004 C   0  0  0  0  0  0  0  0  0  0  0  0
    2.4677   -0.1263   -1.9508 H   0  0  0  0  0  0  0  0  0  0  0  0
    2.4932   -1.9068   -1.9754 H   0  0  0  0  0  0  0  0  0  0  0  0
    0.9511   -1.0554   -2.0426 H   0  0  0  0  0  0  0  0  0  0  0  0
    3.7661   -2.0799    0.0929 H   0  0  0  0  0  0  0  0  0  0  0  0
    3.6856   -2.1142    2.5627 H   0  0  0  0  0  0  0  0  0  0  0  0
    1.7762   -1.0987    3.7621 H   0  0  0  0  0  0  0  0  0  0  0  0
   -0.0907    1.2344   -0.3773 H   0  0  0  0  0  0  0  0  0  0  0  0
   -0.4393   -0.3147   -1.1836 H   0  0  0  0  0  0  0  0  0  0  0  0
   -1.2574    0.0869    0.3253 H   0  0  0  0  0  0  0  0  0  0  0  0
   -0.1735    1.1771    2.9186 H   0  0  0  0  0  0  0  0  0  0  0  0
   -1.3083    0.0607    2.1203 H   0  0  0  0  0  0  0  0  0  0  0  0
   -0.5584   -0.4018    3.6471 H   0  0  0  0  0  0  0  0  0  0  0  0
  1  2  1  0
  2  7  2  0
  2  3  1  0
  3  4  2  0
  4  5  1  0
  5  6  2  0
  6  7  1  0
  7  8  1  0
  6  9  1  0
  1 10  1  0
  1 11  1  0
  1 12  1  0
  3 13  1  0
  4 14  1  0
  5 15  1  0
  8 16  1  0
  8 17  1  0
  8 18  1  0
  9 19  1  0
  9 20  1  0
  9 21  1  0
M  END
>  <_TriposChargeType>  (216) 
USER_CHARGES

>  <solvdG>  (216) 
-1.21

>  <fdG>  (216) 
-0.88

>  <fname>  (216) 
mobley_3452749

>  <cname>  (216) 
 1,2,3-trimethylbenzene

>  <dataset>  (216) 
FreeSolv

$$$$
1-(p-tolyl)ethanone
     RDKit          3D

 20 20  0  0  0  0  0  0  0  0999 V2000
    1.9301   -1.0136   -1.6031 C   0  0  0  0  0  0  0  0  0  0  0  0
    1.8851   -1.0363   -0.1124 C   0  0  0  0  0  0  0  0  0  0  0  0
    2.9210   -1.6309    0.6081 C   0  0  0  0  0  0  0  0  0  0  0  0
    2.8783   -1.6520    2.0022 C   0  0  0  0  0  0  0  0  0  0  0  0
    1.7997   -1.0786    2.6757 C   0  0  0  0  0  0  0  0  0  0  0  0
    0.7638   -0.4841    1.9551 C   0  0  0  0  0  0  0  0  0  0  0  0
    0.8066   -0.4630    0.5610 C   0  0  0  0  0  0  0  0  0  0  0  0
    1.7553   -1.1010    4.1293 C   0  0  0  0  0  0  0  0  0  0  0  0
    2.2556   -1.9769    4.8379 O   0  0  0  0  0  0  0  0  0  0  0  0
    1.0520    0.0317    4.8189 C   0  0  0  0  0  0  0  0  0  0  0  0
    2.4377   -0.1078   -1.9487 H   0  0  0  0  0  0  0  0  0  0  0  0
    2.4627   -1.8880   -1.9916 H   0  0  0  0  0  0  0  0  0  0  0  0
    0.9197   -1.0362   -2.0250 H   0  0  0  0  0  0  0  0  0  0  0  0
    3.7653   -2.0798    0.0916 H   0  0  0  0  0  0  0  0  0  0  0  0
    3.6905   -2.1181    2.5539 H   0  0  0  0  0  0  0  0  0  0  0  0
   -0.0812   -0.0346    2.4698 H   0  0  0  0  0  0  0  0  0  0  0  0
   -0.0050    0.0024    0.0078 H   0  0  0  0  0  0  0  0  0  0  0  0
   -0.0214   -0.1468    4.9899 H   0  0  0  0  0  0  0  0  0  0  0  0
    1.1463    0.9897    4.2845 H   0  0  0  0  0  0  0  0  0  0  0  0
    1.4476    0.2394    5.8291 H   0  0  0  0  0  0  0  0  0  0  0  0
  1  2  1  0
  2  7  2  0
  2  3  1  0
  3  4  2  0
  4  5  1  0
  5  6  2  0
  6  7  1  0
  5  8  1  0
  8  9  2  0
  8 10  1  0
  1 11  1  0
  1 12  1  0
  1 13  1  0
  3 14  1  0
  4 15  1  0
  6 16  1  0
  7 17  1  0
 10 18  1  0
 10 19  1  0
 10 20  1  0
M  END
>  <_TriposChargeType>  (217) 
USER_CHARGES

>  <solvdG>  (217) 
-4.7

>  <fdG>  (217) 
-4.91

>  <fname>  (217) 
mobley_349850

>  <cname>  (217) 
 1-(p-tolyl)ethanone

>  <dataset>  (217) 
FreeSolv

$$$$
2-methoxyphenol
     RDKit          3D

 17 17  0  0  0  0  0  0  0  0999 V2000
    3.0744   -1.6295   -2.0769 C   0  0  0  0  0  0  0  0  0  0  0  0
    1.9380   -1.0221   -1.4736 O   0  0  0  0  0  0  0  0  0  0  0  0
    1.8851   -1.0363   -0.1124 C   0  0  0  0  0  0  0  0  0  0  0  0
    2.9210   -1.6309    0.6081 C   0  0  0  0  0  0  0  0  0  0  0  0
    2.8783   -1.6520    2.0022 C   0  0  0  0  0  0  0  0  0  0  0  0
    1.7997   -1.0786    2.6757 C   0  0  0  0  0  0  0  0  0  0  0  0
    0.7638   -0.4841    1.9551 C   0  0  0  0  0  0  0  0  0  0  0  0
    0.8066   -0.4630    0.5610 C   0  0  0  0  0  0  0  0  0  0  0  0
   -0.2120    0.1189   -0.1313 O   0  0  0  0  0  0  0  0  0  0  0  0
    2.9960   -1.5516   -3.1640 H   0  0  0  0  0  0  0  0  0  0  0  0
    3.1284   -2.6797   -1.7791 H   0  0  0  0  0  0  0  0  0  0  0  0
    3.9752   -1.1106   -1.7407 H   0  0  0  0  0  0  0  0  0  0  0  0
    3.7636   -2.0800    0.0898 H   0  0  0  0  0  0  0  0  0  0  0  0
    3.6855   -2.1140    2.5632 H   0  0  0  0  0  0  0  0  0  0  0  0
    1.7656   -1.0967    3.7611 H   0  0  0  0  0  0  0  0  0  0  0  0
   -0.0744   -0.0402    2.4854 H   0  0  0  0  0  0  0  0  0  0  0  0
   -0.0465    0.0585   -1.0853 H   0  0  0  0  0  0  0  0  0  0  0  0
  1  2  1  0
  2  3  1  0
  3  8  2  0
  3  4  1  0
  4  5  2  0
  5  6  1  0
  6  7  2  0
  7  8  1  0
  8  9  1  0
  1 10  1  0
  1 11  1  0
  1 12  1  0
  4 13  1  0
  5 14  1  0
  6 15  1  0
  7 16  1  0
  9 17  1  0
M  END
>  <_TriposChargeType>  (218) 
USER_CHARGES

>  <solvdG>  (218) 
-5.94

>  <fdG>  (218) 
-4.75

>  <fname>  (218) 
mobley_3515580

>  <cname>  (218) 
 2-methoxyphenol

>  <dataset>  (218) 
FreeSolv

$$$$
2-acetoxyethyl acetate
     RDKit          3D

 20 19  0  0  0  0  0  0  0  0999 V2000
   -0.1306    1.1111   -0.1834 C   0  0  0  0  0  0  0  0  0  0  0  0
   -0.7126    1.3208   -1.5485 C   0  0  0  0  0  0  0  0  0  0  0  0
   -0.1670    1.9646   -2.4344 O   0  0  0  0  0  0  0  0  0  0  0  0
   -1.9187    0.6904   -1.6316 O   0  0  0  0  0  0  0  0  0  0  0  0
   -2.5898    0.8104   -2.8899 C   0  0  0  0  0  0  0  0  0  0  0  0
   -3.9023    0.0599   -2.8144 C   0  0  0  0  0  0  0  0  0  0  0  0
   -3.6412   -1.3094   -2.5310 O   0  0  0  0  0  0  0  0  0  0  0  0
   -4.7406   -2.1162   -2.4327 C   0  0  0  0  0  0  0  0  0  0  0  0
   -5.9055   -1.7662   -2.5654 O   0  0  0  0  0  0  0  0  0  0  0  0
   -4.3155   -3.5218   -2.1337 C   0  0  0  0  0  0  0  0  0  0  0  0
   -0.4556    1.9119    0.4853 H   0  0  0  0  0  0  0  0  0  0  0  0
    0.9601    1.0798   -0.2460 H   0  0  0  0  0  0  0  0  0  0  0  0
   -0.4833    0.1567    0.2184 H   0  0  0  0  0  0  0  0  0  0  0  0
   -2.7474    1.8733   -3.0823 H   0  0  0  0  0  0  0  0  0  0  0  0
   -1.9414    0.3825   -3.6563 H   0  0  0  0  0  0  0  0  0  0  0  0
   -4.4470    0.1140   -3.7622 H   0  0  0  0  0  0  0  0  0  0  0  0
   -4.5225    0.4644   -2.0092 H   0  0  0  0  0  0  0  0  0  0  0  0
   -4.2652   -3.6721   -1.0525 H   0  0  0  0  0  0  0  0  0  0  0  0
   -3.3458   -3.7224   -2.5963 H   0  0  0  0  0  0  0  0  0  0  0  0
   -5.0494   -4.2187   -2.5488 H   0  0  0  0  0  0  0  0  0  0  0  0
  1  2  1  0
  2  3  2  0
  2  4  1  0
  4  5  1  0
  5  6  1  0
  6  7  1  0
  7  8  1  0
  8  9  2  0
  8 10  1  0
  1 11  1  0
  1 12  1  0
  1 13  1  0
  5 14  1  0
  5 15  1  0
  6 16  1  0
  6 17  1  0
 10 18  1  0
 10 19  1  0
 10 20  1  0
M  END
>  <_TriposChargeType>  (219) 
USER_CHARGES

>  <solvdG>  (219) 
-6.34

>  <fdG>  (219) 
-8.29

>  <fname>  (219) 
mobley_352111

>  <cname>  (219) 
 2-acetoxyethyl acetate

>  <dataset>  (219) 
FreeSolv

$$$$
pentylbenzene
     RDKit          3D

 27 27  0  0  0  0  0  0  0  0999 V2000
   -0.8982    3.6493   -2.4911 C   0  0  0  0  0  0  0  0  0  0  0  0
   -0.8407    2.1942   -2.9280 C   0  0  0  0  0  0  0  0  0  0  0  0
   -0.0263    2.0265   -4.2114 C   0  0  0  0  0  0  0  0  0  0  0  0
    0.0276    0.5585   -4.6460 C   0  0  0  0  0  0  0  0  0  0  0  0
    0.8337    0.3368   -5.9296 C   0  0  0  0  0  0  0  0  0  0  0  0
    0.8893   -1.0976   -6.3586 C   0  0  0  0  0  0  0  0  0  0  0  0
    1.9173   -1.9225   -5.9021 C   0  0  0  0  0  0  0  0  0  0  0  0
    1.9694   -3.2579   -6.3016 C   0  0  0  0  0  0  0  0  0  0  0  0
    0.9935   -3.7684   -7.1576 C   0  0  0  0  0  0  0  0  0  0  0  0
   -0.0345   -2.9434   -7.6141 C   0  0  0  0  0  0  0  0  0  0  0  0
   -0.0866   -1.6080   -7.2146 C   0  0  0  0  0  0  0  0  0  0  0  0
   -1.4828    3.7600   -1.5722 H   0  0  0  0  0  0  0  0  0  0  0  0
    0.1106    4.0278   -2.2995 H   0  0  0  0  0  0  0  0  0  0  0  0
   -1.3541    4.2742   -3.2657 H   0  0  0  0  0  0  0  0  0  0  0  0
   -0.3972    1.5944   -2.1247 H   0  0  0  0  0  0  0  0  0  0  0  0
   -1.8613    1.8253   -3.0832 H   0  0  0  0  0  0  0  0  0  0  0  0
    0.9880    2.4067   -4.0444 H   0  0  0  0  0  0  0  0  0  0  0  0
   -0.4729    2.6305   -5.0105 H   0  0  0  0  0  0  0  0  0  0  0  0
    0.4343   -0.0515   -3.8299 H   0  0  0  0  0  0  0  0  0  0  0  0
   -0.9960    0.2052   -4.8231 H   0  0  0  0  0  0  0  0  0  0  0  0
    1.8502    0.7308   -5.8080 H   0  0  0  0  0  0  0  0  0  0  0  0
    0.3778    0.9169   -6.7423 H   0  0  0  0  0  0  0  0  0  0  0  0
    2.6820   -1.5329   -5.2354 H   0  0  0  0  0  0  0  0  0  0  0  0
    2.7697   -3.9003   -5.9460 H   0  0  0  0  0  0  0  0  0  0  0  0
    1.0337   -4.8082   -7.4687 H   0  0  0  0  0  0  0  0  0  0  0  0
   -0.7940   -3.3407   -8.2810 H   0  0  0  0  0  0  0  0  0  0  0  0
   -0.8916   -0.9731   -7.5752 H   0  0  0  0  0  0  0  0  0  0  0  0
  1  2  1  0
  2  3  1  0
  3  4  1  0
  4  5  1  0
  5  6  1  0
  6 11  2  0
  6  7  1  0
  7  8  2  0
  8  9  1  0
  9 10  2  0
 10 11  1  0
  1 12  1  0
  1 13  1  0
  1 14  1  0
  2 15  1  0
  2 16  1  0
  3 17  1  0
  3 18  1  0
  4 19  1  0
  4 20  1  0
  5 21  1  0
  5 22  1  0
  7 23  1  0
  8 24  1  0
  9 25  1  0
 10 26  1  0
 11 27  1  0
M  END
>  <_TriposChargeType>  (220) 
USER_CHARGES

>  <solvdG>  (220) 
-0.23

>  <fdG>  (220) 
-0.09

>  <fname>  (220) 
mobley_3525176

>  <cname>  (220) 
 pentylbenzene

>  <dataset>  (220) 
FreeSolv

$$$$
hexan-1-ol
     RDKit          3D

 21 20  0  0  0  0  0  0  0  0999 V2000
    1.7561   -1.3904    0.8917 C   0  0  0  0  0  0  0  0  0  0  0  0
    1.1577   -1.8697    2.2056 C   0  0  0  0  0  0  0  0  0  0  0  0
   -0.1230   -1.1065    2.5457 C   0  0  0  0  0  0  0  0  0  0  0  0
   -0.7660   -1.5523    3.8620 C   0  0  0  0  0  0  0  0  0  0  0  0
   -2.0456   -0.7898    4.2020 C   0  0  0  0  0  0  0  0  0  0  0  0
   -2.6476   -1.2671    5.5170 C   0  0  0  0  0  0  0  0  0  0  0  0
   -3.8301   -0.5236    5.7776 O   0  0  0  0  0  0  0  0  0  0  0  0
    2.6706   -1.9479    0.6661 H   0  0  0  0  0  0  0  0  0  0  0  0
    1.0549   -1.5384    0.0642 H   0  0  0  0  0  0  0  0  0  0  0  0
    2.0105   -0.3268    0.9409 H   0  0  0  0  0  0  0  0  0  0  0  0
    1.8950   -1.7365    3.0056 H   0  0  0  0  0  0  0  0  0  0  0  0
    0.9526   -2.9424    2.1254 H   0  0  0  0  0  0  0  0  0  0  0  0
   -0.8464   -1.2130    1.7282 H   0  0  0  0  0  0  0  0  0  0  0  0
    0.1084   -0.0368    2.6242 H   0  0  0  0  0  0  0  0  0  0  0  0
   -0.0356   -1.4015    4.6668 H   0  0  0  0  0  0  0  0  0  0  0  0
   -0.9747   -2.6284    3.8233 H   0  0  0  0  0  0  0  0  0  0  0  0
   -2.7918   -0.9089    3.4080 H   0  0  0  0  0  0  0  0  0  0  0  0
   -1.8415    0.2862    4.2659 H   0  0  0  0  0  0  0  0  0  0  0  0
   -2.9083   -2.3289    5.4642 H   0  0  0  0  0  0  0  0  0  0  0  0
   -1.9496   -1.1119    6.3459 H   0  0  0  0  0  0  0  0  0  0  0  0
   -4.1875   -0.8509    6.6190 H   0  0  0  0  0  0  0  0  0  0  0  0
  1  2  1  0
  2  3  1  0
  3  4  1  0
  4  5  1  0
  5  6  1  0
  6  7  1  0
  1  8  1  0
  1  9  1  0
  1 10  1  0
  2 11  1  0
  2 12  1  0
  3 13  1  0
  3 14  1  0
  4 15  1  0
  4 16  1  0
  5 17  1  0
  5 18  1  0
  6 19  1  0
  6 20  1  0
  7 21  1  0
M  END
>  <_TriposChargeType>  (221) 
USER_CHARGES

>  <solvdG>  (221) 
-4.4

>  <fdG>  (221) 
-3.0

>  <fname>  (221) 
mobley_3546460

>  <cname>  (221) 
 hexan-1-ol

>  <dataset>  (221) 
FreeSolv

$$$$
pentyl propanoate
     RDKit          3D

 26 25  0  0  0  0  0  0  0  0999 V2000
    0.7898   -0.3889    0.6495 C   0  0  0  0  0  0  0  0  0  0  0  0
    1.6171   -1.4421   -0.0701 C   0  0  0  0  0  0  0  0  0  0  0  0
    2.2938   -0.8687   -1.3148 C   0  0  0  0  0  0  0  0  0  0  0  0
    3.1237   -1.9294   -2.0346 C   0  0  0  0  0  0  0  0  0  0  0  0
    3.8013   -1.3663   -3.2758 C   0  0  0  0  0  0  0  0  0  0  0  0
    4.5541   -2.3990   -3.8966 O   0  0  0  0  0  0  0  0  0  0  0  0
    5.2282   -2.0458   -5.0366 C   0  0  0  0  0  0  0  0  0  0  0  0
    5.2289   -0.9337   -5.5462 O   0  0  0  0  0  0  0  0  0  0  0  0
    5.9735   -3.2478   -5.5677 C   0  0  0  0  0  0  0  0  0  0  0  0
    6.7458   -2.9271   -6.8355 C   0  0  0  0  0  0  0  0  0  0  0  0
    0.3090   -0.8081    1.5392 H   0  0  0  0  0  0  0  0  0  0  0  0
    1.4137    0.4548    0.9610 H   0  0  0  0  0  0  0  0  0  0  0  0
    0.0059   -0.0059   -0.0114 H   0  0  0  0  0  0  0  0  0  0  0  0
    0.9678   -2.2795   -0.3511 H   0  0  0  0  0  0  0  0  0  0  0  0
    2.3748   -1.8355    0.6176 H   0  0  0  0  0  0  0  0  0  0  0  0
    1.5325   -0.4720   -1.9975 H   0  0  0  0  0  0  0  0  0  0  0  0
    2.9393   -0.0293   -1.0281 H   0  0  0  0  0  0  0  0  0  0  0  0
    2.4898   -2.7778   -2.3208 H   0  0  0  0  0  0  0  0  0  0  0  0
    3.8852   -2.3389   -1.3593 H   0  0  0  0  0  0  0  0  0  0  0  0
    4.4811   -0.5494   -3.0134 H   0  0  0  0  0  0  0  0  0  0  0  0
    3.0602   -0.9971   -3.9918 H   0  0  0  0  0  0  0  0  0  0  0  0
    6.6703   -3.5923   -4.7963 H   0  0  0  0  0  0  0  0  0  0  0  0
    5.2480   -4.0411   -5.7766 H   0  0  0  0  0  0  0  0  0  0  0  0
    7.2790   -3.8093   -7.2052 H   0  0  0  0  0  0  0  0  0  0  0  0
    6.0647   -2.5849   -7.6206 H   0  0  0  0  0  0  0  0  0  0  0  0
    7.4856   -2.1398   -6.6567 H   0  0  0  0  0  0  0  0  0  0  0  0
  1  2  1  0
  2  3  1  0
  3  4  1  0
  4  5  1  0
  5  6  1  0
  6  7  1  0
  7  8  2  0
  7  9  1  0
  9 10  1  0
  1 11  1  0
  1 12  1  0
  1 13  1  0
  2 14  1  0
  2 15  1  0
  3 16  1  0
  3 17  1  0
  4 18  1  0
  4 19  1  0
  5 20  1  0
  5 21  1  0
  9 22  1  0
  9 23  1  0
 10 24  1  0
 10 25  1  0
 10 26  1  0
M  END
>  <_TriposChargeType>  (222) 
USER_CHARGES

>  <solvdG>  (222) 
-2.11

>  <fdG>  (222) 
-2.18

>  <fname>  (222) 
mobley_3572203

>  <cname>  (222) 
 pentyl propanoate

>  <dataset>  (222) 
FreeSolv

$$$$
heptan-2-one
     RDKit          3D

 22 21  0  0  0  0  0  0  0  0999 V2000
   -3.2943    0.4136    5.9540 C   0  0  0  0  0  0  0  0  0  0  0  0
   -2.7302    1.1733    4.7639 C   0  0  0  0  0  0  0  0  0  0  0  0
   -1.4004    0.5789    4.2991 C   0  0  0  0  0  0  0  0  0  0  0  0
   -0.8378    1.3482    3.1007 C   0  0  0  0  0  0  0  0  0  0  0  0
    0.4906    0.7790    2.6121 C   0  0  0  0  0  0  0  0  0  0  0  0
    1.0568    1.5332    1.4257 C   0  0  0  0  0  0  0  0  0  0  0  0
    0.4663    2.4996    0.9428 O   0  0  0  0  0  0  0  0  0  0  0  0
    2.3782    1.0693    0.8716 C   0  0  0  0  0  0  0  0  0  0  0  0
   -4.2458    0.8456    6.2801 H   0  0  0  0  0  0  0  0  0  0  0  0
   -3.4703   -0.6330    5.6866 H   0  0  0  0  0  0  0  0  0  0  0  0
   -2.5990    0.4360    6.7992 H   0  0  0  0  0  0  0  0  0  0  0  0
   -2.5917    2.2246    5.0418 H   0  0  0  0  0  0  0  0  0  0  0  0
   -3.4568    1.1470    3.9435 H   0  0  0  0  0  0  0  0  0  0  0  0
   -1.5479   -0.4741    4.0321 H   0  0  0  0  0  0  0  0  0  0  0  0
   -0.6786    0.6054    5.1243 H   0  0  0  0  0  0  0  0  0  0  0  0
   -1.5727    1.3503    2.2875 H   0  0  0  0  0  0  0  0  0  0  0  0
   -0.6808    2.3949    3.3884 H   0  0  0  0  0  0  0  0  0  0  0  0
    0.3773   -0.2749    2.3331 H   0  0  0  0  0  0  0  0  0  0  0  0
    1.2345    0.8139    3.4162 H   0  0  0  0  0  0  0  0  0  0  0  0
    2.2125    0.3186    0.0960 H   0  0  0  0  0  0  0  0  0  0  0  0
    2.9275    1.9209    0.4624 H   0  0  0  0  0  0  0  0  0  0  0  0
    2.9760    0.6274    1.6738 H   0  0  0  0  0  0  0  0  0  0  0  0
  1  2  1  0
  2  3  1  0
  3  4  1  0
  4  5  1  0
  5  6  1  0
  6  7  2  0
  6  8  1  0
  1  9  1  0
  1 10  1  0
  1 11  1  0
  2 12  1  0
  2 13  1  0
  3 14  1  0
  3 15  1  0
  4 16  1  0
  4 17  1  0
  5 18  1  0
  5 19  1  0
  8 20  1  0
  8 21  1  0
  8 22  1  0
M  END
>  <_TriposChargeType>  (223) 
USER_CHARGES

>  <solvdG>  (223) 
-3.04

>  <fdG>  (223) 
-2.94

>  <fname>  (223) 
mobley_3573480

>  <cname>  (223) 
 heptan-2-one

>  <dataset>  (223) 
FreeSolv

$$$$
2-chloro-1,1,1-trimethoxy-ethane
     RDKit          3D

 20 19  0  0  0  0  0  0  0  0999 V2000
    0.0111    0.9021   -2.2285 C   0  0  0  0  0  0  0  0  0  0  0  0
    0.7431    0.9073   -1.0106 O   0  0  0  0  0  0  0  0  0  0  0  0
    0.2965   -0.0354   -0.0108 C   0  0  0  0  0  0  0  0  0  0  0  0
    0.8466   -1.4411   -0.3399 C   0  0  0  0  0  0  0  0  0  0  0  0
    2.5312   -1.3873   -0.9314 Cl  0  0  0  0  0  0  0  0  0  0  0  0
    0.8640    0.3174    1.2722 O   0  0  0  0  0  0  0  0  0  0  0  0
    0.4989    1.6159    1.7228 C   0  0  0  0  0  0  0  0  0  0  0  0
   -1.1451   -0.0516    0.0426 O   0  0  0  0  0  0  0  0  0  0  0  0
   -1.7227   -0.9400    0.9887 C   0  0  0  0  0  0  0  0  0  0  0  0
    0.4296    1.6474   -2.9093 H   0  0  0  0  0  0  0  0  0  0  0  0
   -1.0387    1.1279   -2.0247 H   0  0  0  0  0  0  0  0  0  0  0  0
    0.0869   -0.0878   -2.6846 H   0  0  0  0  0  0  0  0  0  0  0  0
    0.2444   -1.9462   -1.1007 H   0  0  0  0  0  0  0  0  0  0  0  0
    0.8606   -2.0794    0.5489 H   0  0  0  0  0  0  0  0  0  0  0  0
    0.9647    1.8038    2.6909 H   0  0  0  0  0  0  0  0  0  0  0  0
   -0.5872    1.6747    1.8059 H   0  0  0  0  0  0  0  0  0  0  0  0
    0.8519    2.3494    0.9972 H   0  0  0  0  0  0  0  0  0  0  0  0
   -2.8100   -0.8644    0.9369 H   0  0  0  0  0  0  0  0  0  0  0  0
   -1.3721   -0.6793    1.9888 H   0  0  0  0  0  0  0  0  0  0  0  0
   -1.4149   -1.9584    0.7469 H   0  0  0  0  0  0  0  0  0  0  0  0
  1  2  1  0
  2  3  1  0
  3  4  1  0
  4  5  1  0
  3  6  1  0
  6  7  1  0
  3  8  1  0
  8  9  1  0
  1 10  1  0
  1 11  1  0
  1 12  1  0
  4 13  1  0
  4 14  1  0
  7 15  1  0
  7 16  1  0
  7 17  1  0
  9 18  1  0
  9 19  1  0
  9 20  1  0
M  END
>  <_TriposChargeType>  (224) 
USER_CHARGES

>  <solvdG>  (224) 
-4.59

>  <fdG>  (224) 
-3.64

>  <fname>  (224) 
mobley_3589456

>  <cname>  (224) 
 2-chloro-1,1,1-trimethoxy-ethane

>  <dataset>  (224) 
FreeSolv

$$$$
octan-1-ol
     RDKit          3D

 27 26  0  0  0  0  0  0  0  0999 V2000
    2.5799    3.1403   -2.3925 C   0  0  0  0  0  0  0  0  0  0  0  0
    2.1180    1.7399   -2.7628 C   0  0  0  0  0  0  0  0  0  0  0  0
    0.9803    1.7771   -3.7844 C   0  0  0  0  0  0  0  0  0  0  0  0
    0.5206    0.3647   -4.1524 C   0  0  0  0  0  0  0  0  0  0  0  0
   -0.6196    0.3419   -5.1745 C   0  0  0  0  0  0  0  0  0  0  0  0
   -1.0791   -1.0707   -5.5423 C   0  0  0  0  0  0  0  0  0  0  0  0
   -2.2156   -1.0345   -6.5629 C   0  0  0  0  0  0  0  0  0  0  0  0
   -2.6806   -2.4351   -6.9360 C   0  0  0  0  0  0  0  0  0  0  0  0
   -3.7339   -2.3323   -7.8840 O   0  0  0  0  0  0  0  0  0  0  0  0
    3.3939    3.1045   -1.6612 H   0  0  0  0  0  0  0  0  0  0  0  0
    1.7584    3.7237   -1.9643 H   0  0  0  0  0  0  0  0  0  0  0  0
    2.9437    3.6667   -3.2805 H   0  0  0  0  0  0  0  0  0  0  0  0
    1.7875    1.2188   -1.8567 H   0  0  0  0  0  0  0  0  0  0  0  0
    2.9667    1.1776   -3.1695 H   0  0  0  0  0  0  0  0  0  0  0  0
    0.1437    2.3482   -3.3668 H   0  0  0  0  0  0  0  0  0  0  0  0
    1.3147    2.3024   -4.6871 H   0  0  0  0  0  0  0  0  0  0  0  0
    0.2135   -0.1727   -3.2469 H   0  0  0  0  0  0  0  0  0  0  0  0
    1.3686   -0.1885   -4.5751 H   0  0  0  0  0  0  0  0  0  0  0  0
   -1.4692    0.9198   -4.7908 H   0  0  0  0  0  0  0  0  0  0  0  0
   -0.2743    0.8533   -6.0817 H   0  0  0  0  0  0  0  0  0  0  0  0
   -1.4205   -1.6003   -4.6459 H   0  0  0  0  0  0  0  0  0  0  0  0
   -0.2348   -1.6369   -5.9537 H   0  0  0  0  0  0  0  0  0  0  0  0
   -1.8955   -0.5056   -7.4693 H   0  0  0  0  0  0  0  0  0  0  0  0
   -3.0642   -0.4631   -6.1664 H   0  0  0  0  0  0  0  0  0  0  0  0
   -1.8644   -3.0111   -7.3836 H   0  0  0  0  0  0  0  0  0  0  0  0
   -3.0544   -2.9699   -6.0570 H   0  0  0  0  0  0  0  0  0  0  0  0
   -4.0064   -3.2389   -8.1000 H   0  0  0  0  0  0  0  0  0  0  0  0
  1  2  1  0
  2  3  1  0
  3  4  1  0
  4  5  1  0
  5  6  1  0
  6  7  1  0
  7  8  1  0
  8  9  1  0
  1 10  1  0
  1 11  1  0
  1 12  1  0
  2 13  1  0
  2 14  1  0
  3 15  1  0
  3 16  1  0
  4 17  1  0
  4 18  1  0
  5 19  1  0
  5 20  1  0
  6 21  1  0
  6 22  1  0
  7 23  1  0
  7 24  1  0
  8 25  1  0
  8 26  1  0
  9 27  1  0
M  END
>  <_TriposChargeType>  (225) 
USER_CHARGES

>  <solvdG>  (225) 
-4.09

>  <fdG>  (225) 
-2.69

>  <fname>  (225) 
mobley_36119

>  <cname>  (225) 
 octan-1-ol

>  <dataset>  (225) 
FreeSolv

$$$$
1-chlorobutane
     RDKit          3D

 14 13  0  0  0  0  0  0  0  0999 V2000
   -0.1172    0.5383    0.9457 C   0  0  0  0  0  0  0  0  0  0  0  0
    0.5893   -0.2070    2.0669 C   0  0  0  0  0  0  0  0  0  0  0  0
    0.4429    0.5211    3.4031 C   0  0  0  0  0  0  0  0  0  0  0  0
    1.1538   -0.2334    4.5189 C   0  0  0  0  0  0  0  0  0  0  0  0
    0.9725    0.6284    6.0642 Cl  0  0  0  0  0  0  0  0  0  0  0  0
   -0.0072    0.0100   -0.0067 H   0  0  0  0  0  0  0  0  0  0  0  0
   -1.1861    0.6264    1.1638 H   0  0  0  0  0  0  0  0  0  0  0  0
    0.2899    1.5476    0.8281 H   0  0  0  0  0  0  0  0  0  0  0  0
    1.6509   -0.3132    1.8149 H   0  0  0  0  0  0  0  0  0  0  0  0
    0.1717   -1.2176    2.1458 H   0  0  0  0  0  0  0  0  0  0  0  0
    0.8577    1.5330    3.3152 H   0  0  0  0  0  0  0  0  0  0  0  0
   -0.6216    0.6283    3.6460 H   0  0  0  0  0  0  0  0  0  0  0  0
    2.2246   -0.3257    4.3137 H   0  0  0  0  0  0  0  0  0  0  0  0
    0.7353   -1.2362    4.6468 H   0  0  0  0  0  0  0  0  0  0  0  0
  1  2  1  0
  2  3  1  0
  3  4  1  0
  4  5  1  0
  1  6  1  0
  1  7  1  0
  1  8  1  0
  2  9  1  0
  2 10  1  0
  3 11  1  0
  3 12  1  0
  4 13  1  0
  4 14  1  0
M  END
>  <_TriposChargeType>  (226) 
USER_CHARGES

>  <solvdG>  (226) 
-0.16

>  <fdG>  (226) 
0.99

>  <fname>  (226) 
mobley_3639400

>  <cname>  (226) 
 1-chlorobutane

>  <dataset>  (226) 
FreeSolv

$$$$
naphthalen-2-ol
     RDKit          3D

 19 20  0  0  0  0  0  0  0  0999 V2000
   -0.4966   -2.0341    0.4940 C   0  0  0  0  0  0  0  0  0  0  0  0
    0.3500   -1.0275    0.0392 C   0  0  0  0  0  0  0  0  0  0  0  0
    1.6484   -1.3369   -0.3665 C   0  0  0  0  0  0  0  0  0  0  0  0
    2.1168   -2.6602   -0.3222 C   0  0  0  0  0  0  0  0  0  0  0  0
    3.4207   -2.9899   -0.7267 C   0  0  0  0  0  0  0  0  0  0  0  0
    3.8693   -4.3100   -0.6758 C   0  0  0  0  0  0  0  0  0  0  0  0
    3.0228   -5.3167   -0.2210 C   0  0  0  0  0  0  0  0  0  0  0  0
    1.7243   -5.0072    0.1848 C   0  0  0  0  0  0  0  0  0  0  0  0
    1.2560   -3.6839    0.1403 C   0  0  0  0  0  0  0  0  0  0  0  0
   -0.0479   -3.3542    0.5448 C   0  0  0  0  0  0  0  0  0  0  0  0
    5.1358   -4.6136   -1.0711 O   0  0  0  0  0  0  0  0  0  0  0  0
   -1.5074   -1.7925    0.8090 H   0  0  0  0  0  0  0  0  0  0  0  0
    0.0004    0.0003    0.0001 H   0  0  0  0  0  0  0  0  0  0  0  0
    2.2925   -0.5339   -0.7191 H   0  0  0  0  0  0  0  0  0  0  0  0
    4.0955   -2.2144   -1.0847 H   0  0  0  0  0  0  0  0  0  0  0  0
    3.3668   -6.3466   -0.1799 H   0  0  0  0  0  0  0  0  0  0  0  0
    1.0796   -5.8103    0.5361 H   0  0  0  0  0  0  0  0  0  0  0  0
   -0.7263   -4.1256    0.9032 H   0  0  0  0  0  0  0  0  0  0  0  0
    5.2981   -5.5659   -0.9779 H   0  0  0  0  0  0  0  0  0  0  0  0
  1 10  2  0
  1  2  1  0
  2  3  2  0
  3  4  1  0
  4  9  2  0
  4  5  1  0
  5  6  2  0
  6  7  1  0
  7  8  2  0
  8  9  1  0
  9 10  1  0
  6 11  1  0
  1 12  1  0
  2 13  1  0
  3 14  1  0
  5 15  1  0
  7 16  1  0
  8 17  1  0
 10 18  1  0
 11 19  1  0
M  END
>  <_TriposChargeType>  (227) 
USER_CHARGES

>  <solvdG>  (227) 
-8.11

>  <fdG>  (227) 
-7.85

>  <fname>  (227) 
mobley_3663158

>  <cname>  (227) 
 naphthalen-2-ol

>  <dataset>  (227) 
FreeSolv

$$$$
cyclohexanone
     RDKit          3D

 17 17  0  0  0  0  0  0  0  0999 V2000
    0.9260    0.3338   -1.5529 C   0  0  0  0  0  0  0  0  0  0  0  0
    1.1135    1.2057   -0.3132 C   0  0  0  0  0  0  0  0  0  0  0  0
   -0.1457    1.2507    0.5414 C   0  0  0  0  0  0  0  0  0  0  0  0
   -0.6339   -0.1479    0.8463 C   0  0  0  0  0  0  0  0  0  0  0  0
   -1.0070   -0.4694    1.9735 O   0  0  0  0  0  0  0  0  0  0  0  0
   -0.7630   -1.0895   -0.3301 C   0  0  0  0  0  0  0  0  0  0  0  0
    0.5101   -1.0835   -1.1650 C   0  0  0  0  0  0  0  0  0  0  0  0
    1.8619    0.2989   -2.1219 H   0  0  0  0  0  0  0  0  0  0  0  0
    0.1661    0.7776   -2.2073 H   0  0  0  0  0  0  0  0  0  0  0  0
    1.9454    0.8088    0.2822 H   0  0  0  0  0  0  0  0  0  0  0  0
    1.3906    2.2222   -0.6141 H   0  0  0  0  0  0  0  0  0  0  0  0
    0.0616    1.7718    1.4817 H   0  0  0  0  0  0  0  0  0  0  0  0
   -0.9500    1.7853    0.0243 H   0  0  0  0  0  0  0  0  0  0  0  0
   -0.9604   -2.1011    0.0393 H   0  0  0  0  0  0  0  0  0  0  0  0
   -1.6236   -0.7697   -0.9277 H   0  0  0  0  0  0  0  0  0  0  0  0
    1.3226   -1.5529   -0.5961 H   0  0  0  0  0  0  0  0  0  0  0  0
    0.3609   -1.6856   -2.0681 H   0  0  0  0  0  0  0  0  0  0  0  0
  1  7  1  0
  1  2  1  0
  2  3  1  0
  3  4  1  0
  4  5  2  0
  4  6  1  0
  6  7  1  0
  1  8  1  0
  1  9  1  0
  2 10  1  0
  2 11  1  0
  3 12  1  0
  3 13  1  0
  6 14  1  0
  6 15  1  0
  7 16  1  0
  7 17  1  0
M  END
>  <_TriposChargeType>  (228) 
USER_CHARGES

>  <solvdG>  (228) 
-4.91

>  <fdG>  (228) 
-4.18

>  <fname>  (228) 
mobley_3682850

>  <cname>  (228) 
 cyclohexanone

>  <dataset>  (228) 
FreeSolv

$$$$
1,1-diethoxyethane
     RDKit          3D

 22 21  0  0  0  0  0  0  0  0999 V2000
   -2.1997    1.7783   -2.9577 C   0  0  0  0  0  0  0  0  0  0  0  0
   -0.9532    1.1285   -2.3958 C   0  0  0  0  0  0  0  0  0  0  0  0
   -1.1004   -0.2838   -2.4553 O   0  0  0  0  0  0  0  0  0  0  0  0
    0.0350   -0.9855   -1.9430 C   0  0  0  0  0  0  0  0  0  0  0  0
   -0.0326   -1.0089   -0.4213 C   0  0  0  0  0  0  0  0  0  0  0  0
    0.0393   -2.3517   -2.3774 O   0  0  0  0  0  0  0  0  0  0  0  0
    0.5277   -2.4934   -3.7049 C   0  0  0  0  0  0  0  0  0  0  0  0
    0.4996   -3.9579   -4.0848 C   0  0  0  0  0  0  0  0  0  0  0  0
   -2.1193    2.8684   -2.9267 H   0  0  0  0  0  0  0  0  0  0  0  0
   -2.3646    1.4653   -3.9939 H   0  0  0  0  0  0  0  0  0  0  0  0
   -3.0840    1.4730   -2.3885 H   0  0  0  0  0  0  0  0  0  0  0  0
   -0.8033    1.4236   -1.3530 H   0  0  0  0  0  0  0  0  0  0  0  0
   -0.0737    1.4162   -2.9796 H   0  0  0  0  0  0  0  0  0  0  0  0
    0.9718   -0.5106   -2.2632 H   0  0  0  0  0  0  0  0  0  0  0  0
    0.8301   -1.5431   -0.0073 H   0  0  0  0  0  0  0  0  0  0  0  0
   -0.9329   -1.5175   -0.0648 H   0  0  0  0  0  0  0  0  0  0  0  0
   -0.0141    0.0074   -0.0145 H   0  0  0  0  0  0  0  0  0  0  0  0
   -0.1076   -1.9092   -4.3764 H   0  0  0  0  0  0  0  0  0  0  0  0
    1.5487   -2.1042   -3.7463 H   0  0  0  0  0  0  0  0  0  0  0  0
    0.8701   -4.1026   -5.1035 H   0  0  0  0  0  0  0  0  0  0  0  0
    1.1152   -4.5475   -3.3976 H   0  0  0  0  0  0  0  0  0  0  0  0
   -0.5190   -4.3545   -4.0198 H   0  0  0  0  0  0  0  0  0  0  0  0
  1  2  1  0
  2  3  1  0
  3  4  1  0
  4  5  1  0
  4  6  1  0
  6  7  1  0
  7  8  1  0
  1  9  1  0
  1 10  1  0
  1 11  1  0
  2 12  1  0
  2 13  1  0
  4 14  1  0
  5 15  1  0
  5 16  1  0
  5 17  1  0
  7 18  1  0
  7 19  1  0
  8 20  1  0
  8 21  1  0
  8 22  1  0
M  END
>  <_TriposChargeType>  (229) 
USER_CHARGES

>  <solvdG>  (229) 
-3.28

>  <fdG>  (229) 
-1.79

>  <fname>  (229) 
mobley_3686115

>  <cname>  (229) 
 1,1-diethoxyethane

>  <dataset>  (229) 
FreeSolv

$$$$
propyl butanoate
     RDKit          3D

 23 22  0  0  0  0  0  0  0  0999 V2000
   -0.3792   -0.7021    0.7539 C   0  0  0  0  0  0  0  0  0  0  0  0
    0.4043   -0.5826    2.0509 C   0  0  0  0  0  0  0  0  0  0  0  0
    1.8852   -0.8881    1.8405 C   0  0  0  0  0  0  0  0  0  0  0  0
    2.6749   -0.7723    3.1243 C   0  0  0  0  0  0  0  0  0  0  0  0
    2.2091   -0.4717    4.2148 O   0  0  0  0  0  0  0  0  0  0  0  0
    3.9853   -1.0584    2.8643 O   0  0  0  0  0  0  0  0  0  0  0  0
    4.8658   -0.9912    3.9907 C   0  0  0  0  0  0  0  0  0  0  0  0
    6.2691   -1.3347    3.5259 C   0  0  0  0  0  0  0  0  0  0  0  0
    7.2624   -1.2837    4.6728 C   0  0  0  0  0  0  0  0  0  0  0  0
   -1.4367   -0.4792    0.9278 H   0  0  0  0  0  0  0  0  0  0  0  0
   -0.0032   -0.0007    0.0022 H   0  0  0  0  0  0  0  0  0  0  0  0
   -0.3085   -1.7152    0.3450 H   0  0  0  0  0  0  0  0  0  0  0  0
   -0.0178   -1.2709    2.7930 H   0  0  0  0  0  0  0  0  0  0  0  0
    0.2845    0.4299    2.4546 H   0  0  0  0  0  0  0  0  0  0  0  0
    2.3081   -0.1846    1.1145 H   0  0  0  0  0  0  0  0  0  0  0  0
    2.0013   -1.9086    1.4589 H   0  0  0  0  0  0  0  0  0  0  0  0
    4.5105   -1.7007    4.7402 H   0  0  0  0  0  0  0  0  0  0  0  0
    4.8183    0.0207    4.3969 H   0  0  0  0  0  0  0  0  0  0  0  0
    6.2760   -2.3328    3.0716 H   0  0  0  0  0  0  0  0  0  0  0  0
    6.5782   -0.6416    2.7343 H   0  0  0  0  0  0  0  0  0  0  0  0
    8.2714   -1.5326    4.3288 H   0  0  0  0  0  0  0  0  0  0  0  0
    7.2899   -0.2794    5.1069 H   0  0  0  0  0  0  0  0  0  0  0  0
    6.9851   -1.9880    5.4635 H   0  0  0  0  0  0  0  0  0  0  0  0
  1  2  1  0
  2  3  1  0
  3  4  1  0
  4  5  2  0
  4  6  1  0
  6  7  1  0
  7  8  1  0
  8  9  1  0
  1 10  1  0
  1 11  1  0
  1 12  1  0
  2 13  1  0
  2 14  1  0
  3 15  1  0
  3 16  1  0
  7 17  1  0
  7 18  1  0
  8 19  1  0
  8 20  1  0
  9 21  1  0
  9 22  1  0
  9 23  1  0
M  END
>  <_TriposChargeType>  (230) 
USER_CHARGES

>  <solvdG>  (230) 
-2.28

>  <fdG>  (230) 
-2.75

>  <fname>  (230) 
mobley_3690931

>  <cname>  (230) 
 propyl butanoate

>  <dataset>  (230) 
FreeSolv

$$$$
non-1-ene
     RDKit          3D

 27 26  0  0  0  0  0  0  0  0999 V2000
   -2.7076    2.7614   -1.3156 C   0  0  0  0  0  0  0  0  0  0  0  0
   -2.0243    1.4035   -1.3410 C   0  0  0  0  0  0  0  0  0  0  0  0
   -1.3392    1.0964   -0.0096 C   0  0  0  0  0  0  0  0  0  0  0  0
   -0.6527   -0.2710   -0.0390 C   0  0  0  0  0  0  0  0  0  0  0  0
    0.0320   -0.5752    1.2952 C   0  0  0  0  0  0  0  0  0  0  0  0
    0.7375   -1.9363    1.3216 C   0  0  0  0  0  0  0  0  0  0  0  0
    1.4394   -2.2884    2.6375 C   0  0  0  0  0  0  0  0  0  0  0  0
    0.5042   -2.3332    3.8098 C   0  0  0  0  0  0  0  0  0  0  0  0
    0.6221   -1.5545    4.8910 C   0  0  0  0  0  0  0  0  0  0  0  0
   -3.1953    2.9728   -2.2726 H   0  0  0  0  0  0  0  0  0  0  0  0
   -1.9742    3.5514   -1.1261 H   0  0  0  0  0  0  0  0  0  0  0  0
   -3.4653    2.8047   -0.5266 H   0  0  0  0  0  0  0  0  0  0  0  0
   -2.7688    0.6304   -1.5639 H   0  0  0  0  0  0  0  0  0  0  0  0
   -1.2868    1.3872   -2.1519 H   0  0  0  0  0  0  0  0  0  0  0  0
   -0.5982    1.8745    0.2105 H   0  0  0  0  0  0  0  0  0  0  0  0
   -2.0808    1.1183    0.7983 H   0  0  0  0  0  0  0  0  0  0  0  0
    0.0823   -0.2839   -0.8512 H   0  0  0  0  0  0  0  0  0  0  0  0
   -1.3938   -1.0492   -0.2578 H   0  0  0  0  0  0  0  0  0  0  0  0
    0.7430    0.2231    1.5383 H   0  0  0  0  0  0  0  0  0  0  0  0
   -0.7220   -0.5701    2.0924 H   0  0  0  0  0  0  0  0  0  0  0  0
    1.4779   -1.9689    0.5126 H   0  0  0  0  0  0  0  0  0  0  0  0
   -0.0030   -2.7130    1.0912 H   0  0  0  0  0  0  0  0  0  0  0  0
    2.2686   -1.5955    2.8197 H   0  0  0  0  0  0  0  0  0  0  0  0
    1.8934   -3.2816    2.5325 H   0  0  0  0  0  0  0  0  0  0  0  0
   -0.3087   -3.0535    3.7724 H   0  0  0  0  0  0  0  0  0  0  0  0
   -0.0852   -1.6395    5.7086 H   0  0  0  0  0  0  0  0  0  0  0  0
    1.4175   -0.8230    4.9792 H   0  0  0  0  0  0  0  0  0  0  0  0
  1  2  1  0
  2  3  1  0
  3  4  1  0
  4  5  1  0
  5  6  1  0
  6  7  1  0
  7  8  1  0
  8  9  2  3
  1 10  1  0
  1 11  1  0
  1 12  1  0
  2 13  1  0
  2 14  1  0
  3 15  1  0
  3 16  1  0
  4 17  1  0
  4 18  1  0
  5 19  1  0
  5 20  1  0
  6 21  1  0
  6 22  1  0
  7 23  1  0
  7 24  1  0
  8 25  1  0
  9 26  1  0
  9 27  1  0
M  END
>  <_TriposChargeType>  (231) 
USER_CHARGES

>  <solvdG>  (231) 
2.06

>  <fdG>  (231) 
3.0

>  <fname>  (231) 
mobley_3709920

>  <cname>  (231) 
 non-1-ene

>  <dataset>  (231) 
FreeSolv

$$$$
1,4-dimethylnaphthalene
     RDKit          3D

 24 25  0  0  0  0  0  0  0  0999 V2000
   -1.0093   -4.3879    1.0441 C   0  0  0  0  0  0  0  0  0  0  0  0
   -0.0479   -3.3542    0.5448 C   0  0  0  0  0  0  0  0  0  0  0  0
   -0.4966   -2.0341    0.4940 C   0  0  0  0  0  0  0  0  0  0  0  0
    0.3500   -1.0275    0.0392 C   0  0  0  0  0  0  0  0  0  0  0  0
    1.6484   -1.3369   -0.3665 C   0  0  0  0  0  0  0  0  0  0  0  0
    2.1168   -2.6602   -0.3222 C   0  0  0  0  0  0  0  0  0  0  0  0
    1.2560   -3.6839    0.1403 C   0  0  0  0  0  0  0  0  0  0  0  0
    1.7243   -5.0072    0.1848 C   0  0  0  0  0  0  0  0  0  0  0  0
    3.0228   -5.3167   -0.2210 C   0  0  0  0  0  0  0  0  0  0  0  0
    3.8693   -4.3100   -0.6758 C   0  0  0  0  0  0  0  0  0  0  0  0
    3.4207   -2.9899   -0.7267 C   0  0  0  0  0  0  0  0  0  0  0  0
    2.5059   -0.2062   -0.8445 C   0  0  0  0  0  0  0  0  0  0  0  0
   -0.9137   -4.4953    2.1289 H   0  0  0  0  0  0  0  0  0  0  0  0
   -2.0412   -4.1098    0.8054 H   0  0  0  0  0  0  0  0  0  0  0  0
   -0.8186   -5.3585    0.5740 H   0  0  0  0  0  0  0  0  0  0  0  0
   -1.5060   -1.7803    0.8075 H   0  0  0  0  0  0  0  0  0  0  0  0
   -0.0110   -0.0028    0.0040 H   0  0  0  0  0  0  0  0  0  0  0  0
    1.0935   -5.8214    0.5338 H   0  0  0  0  0  0  0  0  0  0  0  0
    3.3728   -6.3442   -0.1820 H   0  0  0  0  0  0  0  0  0  0  0  0
    4.8799   -4.5521   -0.9918 H   0  0  0  0  0  0  0  0  0  0  0  0
    4.1118   -2.2318   -1.0876 H   0  0  0  0  0  0  0  0  0  0  0  0
    3.0572    0.2287   -0.0046 H   0  0  0  0  0  0  0  0  0  0  0  0
    3.2237   -0.5493   -1.5978 H   0  0  0  0  0  0  0  0  0  0  0  0
    1.8982    0.5770   -1.3112 H   0  0  0  0  0  0  0  0  0  0  0  0
  1  2  1  0
  2  7  2  0
  2  3  1  0
  3  4  2  0
  4  5  1  0
  5  6  2  0
  6 11  1  0
  6  7  1  0
  7  8  1  0
  8  9  2  0
  9 10  1  0
 10 11  2  0
  5 12  1  0
  1 13  1  0
  1 14  1  0
  1 15  1  0
  3 16  1  0
  4 17  1  0
  8 18  1  0
  9 19  1  0
 10 20  1  0
 11 21  1  0
 12 22  1  0
 12 23  1  0
 12 24  1  0
M  END
>  <_TriposChargeType>  (232) 
USER_CHARGES

>  <solvdG>  (232) 
-2.82

>  <fdG>  (232) 
-3.08

>  <fname>  (232) 
mobley_3715043

>  <cname>  (232) 
 1,4-dimethylnaphthalene

>  <dataset>  (232) 
FreeSolv

$$$$
1,4-benzoquinone
     RDKit          3D

 12 12  0  0  0  0  0  0  0  0999 V2000
   -0.7272    1.1740    0.3642 C   0  0  0  0  0  0  0  0  0  0  0  0
    0.5407    1.0753    0.7688 C   0  0  0  0  0  0  0  0  0  0  0  0
    1.3629   -0.1061    0.4349 C   0  0  0  0  0  0  0  0  0  0  0  0
    2.5276   -0.1969    0.8069 O   0  0  0  0  0  0  0  0  0  0  0  0
    0.7273   -1.1739   -0.3643 C   0  0  0  0  0  0  0  0  0  0  0  0
   -0.5407   -1.0753   -0.7688 C   0  0  0  0  0  0  0  0  0  0  0  0
   -1.3630    0.1061   -0.4349 C   0  0  0  0  0  0  0  0  0  0  0  0
   -2.5277    0.1969   -0.8067 O   0  0  0  0  0  0  0  0  0  0  0  0
   -1.3263    2.0429    0.6122 H   0  0  0  0  0  0  0  0  0  0  0  0
    1.0024    1.8616    1.3554 H   0  0  0  0  0  0  0  0  0  0  0  0
    1.3259   -2.0438   -0.6108 H   0  0  0  0  0  0  0  0  0  0  0  0
   -1.0023   -1.8614   -1.3557 H   0  0  0  0  0  0  0  0  0  0  0  0
  1  7  1  0
  1  2  2  0
  2  3  1  0
  3  4  2  0
  3  5  1  0
  5  6  2  0
  6  7  1  0
  7  8  2  0
  1  9  1  0
  2 10  1  0
  5 11  1  0
  6 12  1  0
M  END
>  <_TriposChargeType>  (233) 
USER_CHARGES

>  <solvdG>  (233) 
-6.5

>  <fdG>  (233) 
-6.96

>  <fname>  (233) 
mobley_3727287

>  <cname>  (233) 
 quinone

>  <dataset>  (233) 
FreeSolv

$$$$
1-bromopentane
     RDKit          3D

 17 16  0  0  0  0  0  0  0  0999 V2000
   -1.1141   -1.3531    1.7100 C   0  0  0  0  0  0  0  0  0  0  0  0
   -0.4815   -0.9323    0.3922 C   0  0  0  0  0  0  0  0  0  0  0  0
    0.4410    0.2733    0.5771 C   0  0  0  0  0  0  0  0  0  0  0  0
    1.1027    0.7352   -0.7240 C   0  0  0  0  0  0  0  0  0  0  0  0
    2.0180    1.9334   -0.5329 C   0  0  0  0  0  0  0  0  0  0  0  0
    2.8050    2.4371   -2.2431 Br  0  0  0  0  0  0  0  0  0  0  0  0
   -1.7698   -2.2160    1.5571 H   0  0  0  0  0  0  0  0  0  0  0  0
   -1.7139   -0.5413    2.1335 H   0  0  0  0  0  0  0  0  0  0  0  0
   -0.3492   -1.6334    2.4411 H   0  0  0  0  0  0  0  0  0  0  0  0
    0.0848   -1.7754   -0.0200 H   0  0  0  0  0  0  0  0  0  0  0  0
   -1.2797   -0.6958   -0.3194 H   0  0  0  0  0  0  0  0  0  0  0  0
   -0.1204    1.1055    1.0194 H   0  0  0  0  0  0  0  0  0  0  0  0
    1.2329    0.0126    1.2904 H   0  0  0  0  0  0  0  0  0  0  0  0
    1.6796   -0.1057   -1.1299 H   0  0  0  0  0  0  0  0  0  0  0  0
    0.3293    0.9653   -1.4675 H   0  0  0  0  0  0  0  0  0  0  0  0
    2.8511    1.7104    0.1390 H   0  0  0  0  0  0  0  0  0  0  0  0
    1.4831    2.8166   -0.1757 H   0  0  0  0  0  0  0  0  0  0  0  0
  1  2  1  0
  2  3  1  0
  3  4  1  0
  4  5  1  0
  5  6  1  0
  1  7  1  0
  1  8  1  0
  1  9  1  0
  2 10  1  0
  2 11  1  0
  3 12  1  0
  3 13  1  0
  4 14  1  0
  4 15  1  0
  5 16  1  0
  5 17  1  0
M  END
>  <_TriposChargeType>  (234) 
USER_CHARGES

>  <solvdG>  (234) 
-0.1

>  <fdG>  (234) 
0.82

>  <fname>  (234) 
mobley_3738859

>  <cname>  (234) 
 1-bromo-pentane

>  <dataset>  (234) 
FreeSolv

$$$$
isopropenylbenzene
     RDKit          3D

 19 19  0  0  0  0  0  0  0  0999 V2000
    1.9303    0.2624   -2.3738 C   0  0  0  0  0  0  0  0  0  0  0  0
    1.9297   -1.0142   -1.5660 C   0  0  0  0  0  0  0  0  0  0  0  0
    1.9830   -2.1963   -2.2092 C   0  0  0  0  0  0  0  0  0  0  0  0
    1.8851   -1.0363   -0.1124 C   0  0  0  0  0  0  0  0  0  0  0  0
    2.9210   -1.6309    0.6081 C   0  0  0  0  0  0  0  0  0  0  0  0
    2.8783   -1.6520    2.0022 C   0  0  0  0  0  0  0  0  0  0  0  0
    1.7997   -1.0786    2.6757 C   0  0  0  0  0  0  0  0  0  0  0  0
    0.7638   -0.4841    1.9551 C   0  0  0  0  0  0  0  0  0  0  0  0
    0.8066   -0.4630    0.5610 C   0  0  0  0  0  0  0  0  0  0  0  0
    0.9025    0.5547   -2.6143 H   0  0  0  0  0  0  0  0  0  0  0  0
    2.3984    1.0753   -1.8092 H   0  0  0  0  0  0  0  0  0  0  0  0
    2.4734    0.1580   -3.3193 H   0  0  0  0  0  0  0  0  0  0  0  0
    1.9998   -3.1468   -1.6840 H   0  0  0  0  0  0  0  0  0  0  0  0
    2.0221   -2.2452   -3.2931 H   0  0  0  0  0  0  0  0  0  0  0  0
    3.7685   -2.0819    0.0975 H   0  0  0  0  0  0  0  0  0  0  0  0
    3.6847   -2.1151    2.5634 H   0  0  0  0  0  0  0  0  0  0  0  0
    1.7663   -1.0951    3.7611 H   0  0  0  0  0  0  0  0  0  0  0  0
   -0.0759   -0.0376    2.4796 H   0  0  0  0  0  0  0  0  0  0  0  0
   -0.0085    0.0041    0.0133 H   0  0  0  0  0  0  0  0  0  0  0  0
  1  2  1  0
  2  3  2  3
  2  4  1  0
  4  9  2  0
  4  5  1  0
  5  6  2  0
  6  7  1  0
  7  8  2  0
  8  9  1  0
  1 10  1  0
  1 11  1  0
  1 12  1  0
  3 13  1  0
  3 14  1  0
  5 15  1  0
  6 16  1  0
  7 17  1  0
  8 18  1  0
  9 19  1  0
M  END
>  <_TriposChargeType>  (235) 
USER_CHARGES

>  <solvdG>  (235) 
-1.24

>  <fdG>  (235) 
-0.65

>  <fname>  (235) 
mobley_3746675

>  <cname>  (235) 
 isopropenylbenzene

>  <dataset>  (235) 
FreeSolv

$$$$
1,1,1-trichloroethane
     RDKit          3D

  8  7  0  0  0  0  0  0  0  0999 V2000
    1.0245    0.2811   -0.2703 C   0  0  0  0  0  0  0  0  0  0  0  0
    1.2871    1.7565    0.0012 C   0  0  0  0  0  0  0  0  0  0  0  0
    0.1596    2.7554   -0.9573 Cl  0  0  0  0  0  0  0  0  0  0  0  0
    1.0484    2.1022    1.7366 Cl  0  0  0  0  0  0  0  0  0  0  0  0
    2.9647    2.1642   -0.4534 Cl  0  0  0  0  0  0  0  0  0  0  0  0
    1.7029   -0.3597    0.3053 H   0  0  0  0  0  0  0  0  0  0  0  0
   -0.0001    0.0000   -0.0002 H   0  0  0  0  0  0  0  0  0  0  0  0
    1.1631    0.0375   -1.3305 H   0  0  0  0  0  0  0  0  0  0  0  0
  1  2  1  0
  2  3  1  0
  2  4  1  0
  2  5  1  0
  1  6  1  0
  1  7  1  0
  1  8  1  0
M  END
>  <_TriposChargeType>  (236) 
USER_CHARGES

>  <solvdG>  (236) 
-0.19

>  <fdG>  (236) 
0.51

>  <fname>  (236) 
mobley_3761215

>  <cname>  (236) 
 1,1,1-trichloroethane

>  <dataset>  (236) 
FreeSolv

$$$$
dichloromethane
     RDKit          3D

  5  4  0  0  0  0  0  0  0  0999 V2000
    0.1401   -0.0330    0.0343 C   0  0  0  0  0  0  0  0  0  0  0  0
   -0.5440   -0.1483   -1.5910 Cl  0  0  0  0  0  0  0  0  0  0  0  0
   -1.0675    0.5282    1.1961 Cl  0  0  0  0  0  0  0  0  0  0  0  0
    0.9746    0.6725    0.0198 H   0  0  0  0  0  0  0  0  0  0  0  0
    0.4968   -1.0194    0.3407 H   0  0  0  0  0  0  0  0  0  0  0  0
  1  2  1  0
  1  3  1  0
  1  4  1  0
  1  5  1  0
M  END
>  <_TriposChargeType>  (237) 
USER_CHARGES

>  <solvdG>  (237) 
-1.31

>  <fdG>  (237) 
0.04

>  <fname>  (237) 
mobley_3762186

>  <cname>  (237) 
 dichloromethane

>  <dataset>  (237) 
FreeSolv

$$$$
1-methylpyrrole
     RDKit          3D

 13 13  0  0  0  0  0  0  0  0999 V2000
   -0.2315   -0.5271    4.5817 C   0  0  0  0  0  0  0  0  0  0  0  0
    0.2315   -0.2133    3.2493 N   0  0  0  0  0  0  0  0  0  0  0  0
   -0.4888   -0.3990    2.0983 C   0  0  0  0  0  0  0  0  0  0  0  0
    0.2891    0.0196    1.0414 C   0  0  0  0  0  0  0  0  0  0  0  0
    1.5204    0.4727    1.5759 C   0  0  0  0  0  0  0  0  0  0  0  0
    1.4575    0.3171    2.9431 C   0  0  0  0  0  0  0  0  0  0  0  0
   -0.7320    0.3585    4.9821 H   0  0  0  0  0  0  0  0  0  0  0  0
   -0.9255   -1.3709    4.5368 H   0  0  0  0  0  0  0  0  0  0  0  0
    0.6236   -0.7996    5.2066 H   0  0  0  0  0  0  0  0  0  0  0  0
   -1.4887   -0.8111    2.1251 H   0  0  0  0  0  0  0  0  0  0  0  0
    0.0001    0.0001    0.0000 H   0  0  0  0  0  0  0  0  0  0  0  0
    2.3615    0.8702    1.0255 H   0  0  0  0  0  0  0  0  0  0  0  0
    2.1795    0.5395    3.7174 H   0  0  0  0  0  0  0  0  0  0  0  0
  1  2  1  0
  2  6  1  0
  2  3  1  0
  3  4  2  0
  4  5  1  0
  5  6  2  0
  1  7  1  0
  1  8  1  0
  1  9  1  0
  3 10  1  0
  4 11  1  0
  5 12  1  0
  6 13  1  0
M  END
>  <_TriposChargeType>  (238) 
USER_CHARGES

>  <solvdG>  (238) 
-2.89

>  <fdG>  (238) 
-2.37

>  <fname>  (238) 
mobley_3775790

>  <cname>  (238) 
 1-methylpyrrole

>  <dataset>  (238) 
FreeSolv

$$$$
3-nitroaniline
     RDKit          3D

 16 16  0  0  0  0  0  0  0  0999 V2000
    1.8851   -1.0363   -0.1124 C   0  0  0  0  0  0  0  0  0  0  0  0
    2.9210   -1.6309    0.6081 C   0  0  0  0  0  0  0  0  0  0  0  0
    2.8783   -1.6520    2.0022 C   0  0  0  0  0  0  0  0  0  0  0  0
    1.7997   -1.0786    2.6757 C   0  0  0  0  0  0  0  0  0  0  0  0
    0.7638   -0.4841    1.9551 C   0  0  0  0  0  0  0  0  0  0  0  0
    0.8066   -0.4630    0.5610 C   0  0  0  0  0  0  0  0  0  0  0  0
   -0.3343    0.1010    2.6397 N   0  0  0  0  0  4  0  0  0  0  0  0
   -1.2549    0.6304    1.9715 O   0  0  0  0  0  0  0  0  0  0  0  0
   -0.3535    0.0726    3.8939 O   0  0  0  0  0  1  0  0  0  0  0  0
    3.9253   -2.2539    2.7308 N   0  0  0  0  0  0  0  0  0  0  0  0
    1.9185   -1.0198   -1.1978 H   0  0  0  0  0  0  0  0  0  0  0  0
    3.7566   -2.0753    0.0732 H   0  0  0  0  0  0  0  0  0  0  0  0
    1.7685   -1.0959    3.7634 H   0  0  0  0  0  0  0  0  0  0  0  0
    0.0055   -0.0027   -0.0124 H   0  0  0  0  0  0  0  0  0  0  0  0
    3.9061   -2.2209    3.7300 H   0  0  0  0  0  0  0  0  0  0  0  0
    4.7147   -2.6198    2.2380 H   0  0  0  0  0  0  0  0  0  0  0  0
  1  6  2  0
  1  2  1  0
  2  3  2  0
  3  4  1  0
  4  5  2  0
  5  6  1  0
  5  7  1  0
  7  8  2  0
  7  9  1  0
  3 10  1  0
  1 11  1  0
  2 12  1  0
  4 13  1  0
  6 14  1  0
 10 15  1  0
 10 16  1  0
M  CHG  2   7   1   9  -1
M  END
>  <_TriposChargeType>  (239) 
USER_CHARGES

>  <solvdG>  (239) 
-8.84

>  <fdG>  (239) 
-8.2

>  <fname>  (239) 
mobley_3777264

>  <cname>  (239) 
 3-nitroaniline

>  <dataset>  (239) 
FreeSolv

$$$$
hexyl nitrate
     RDKit          3D

 23 22  0  0  0  0  0  0  0  0999 V2000
    1.7561   -1.3904    0.8917 C   0  0  0  0  0  0  0  0  0  0  0  0
    1.1577   -1.8697    2.2056 C   0  0  0  0  0  0  0  0  0  0  0  0
   -0.1230   -1.1065    2.5457 C   0  0  0  0  0  0  0  0  0  0  0  0
   -0.7660   -1.5523    3.8620 C   0  0  0  0  0  0  0  0  0  0  0  0
   -2.0456   -0.7898    4.2020 C   0  0  0  0  0  0  0  0  0  0  0  0
   -2.6476   -1.2671    5.5170 C   0  0  0  0  0  0  0  0  0  0  0  0
   -3.8301   -0.5236    5.7776 O   0  0  0  0  0  0  0  0  0  0  0  0
   -4.4776   -0.8908    6.9901 N   0  0  0  0  0  4  0  0  0  0  0  0
   -3.9617   -1.7854    7.6642 O   0  0  0  0  0  0  0  0  0  0  0  0
   -5.5006   -0.2391    7.2032 O   0  0  0  0  0  1  0  0  0  0  0  0
    2.6706   -1.9479    0.6661 H   0  0  0  0  0  0  0  0  0  0  0  0
    1.0549   -1.5384    0.0642 H   0  0  0  0  0  0  0  0  0  0  0  0
    2.0105   -0.3268    0.9409 H   0  0  0  0  0  0  0  0  0  0  0  0
    1.8950   -1.7365    3.0056 H   0  0  0  0  0  0  0  0  0  0  0  0
    0.9526   -2.9424    2.1254 H   0  0  0  0  0  0  0  0  0  0  0  0
   -0.8464   -1.2130    1.7282 H   0  0  0  0  0  0  0  0  0  0  0  0
    0.1084   -0.0368    2.6242 H   0  0  0  0  0  0  0  0  0  0  0  0
   -0.0356   -1.4015    4.6668 H   0  0  0  0  0  0  0  0  0  0  0  0
   -0.9747   -2.6284    3.8233 H   0  0  0  0  0  0  0  0  0  0  0  0
   -2.7918   -0.9089    3.4080 H   0  0  0  0  0  0  0  0  0  0  0  0
   -1.8415    0.2862    4.2659 H   0  0  0  0  0  0  0  0  0  0  0  0
   -2.9083   -2.3289    5.4642 H   0  0  0  0  0  0  0  0  0  0  0  0
   -1.9496   -1.1119    6.3459 H   0  0  0  0  0  0  0  0  0  0  0  0
  1  2  1  0
  2  3  1  0
  3  4  1  0
  4  5  1  0
  5  6  1  0
  6  7  1  0
  7  8  1  0
  8  9  2  0
  8 10  1  0
  1 11  1  0
  1 12  1  0
  1 13  1  0
  2 14  1  0
  2 15  1  0
  3 16  1  0
  3 17  1  0
  4 18  1  0
  4 19  1  0
  5 20  1  0
  5 21  1  0
  6 22  1  0
  6 23  1  0
M  CHG  2   8   1  10  -1
M  END
>  <_TriposChargeType>  (240) 
USER_CHARGES

>  <solvdG>  (240) 
-1.66

>  <fdG>  (240) 
-1.6

>  <fname>  (240) 
mobley_3802803

>  <cname>  (240) 
 hexyl nitrate

>  <dataset>  (240) 
FreeSolv

$$$$
naphthalen-1-amine
     RDKit          3D

 20 21  0  0  0  0  0  0  0  0999 V2000
   -0.4966   -2.0341    0.4940 C   0  0  0  0  0  0  0  0  0  0  0  0
    0.3500   -1.0275    0.0392 C   0  0  0  0  0  0  0  0  0  0  0  0
    1.6484   -1.3369   -0.3665 C   0  0  0  0  0  0  0  0  0  0  0  0
    2.1168   -2.6602   -0.3222 C   0  0  0  0  0  0  0  0  0  0  0  0
    1.2560   -3.6839    0.1403 C   0  0  0  0  0  0  0  0  0  0  0  0
   -0.0479   -3.3542    0.5448 C   0  0  0  0  0  0  0  0  0  0  0  0
    1.7243   -5.0072    0.1848 C   0  0  0  0  0  0  0  0  0  0  0  0
    3.0228   -5.3167   -0.2210 C   0  0  0  0  0  0  0  0  0  0  0  0
    3.8693   -4.3100   -0.6758 C   0  0  0  0  0  0  0  0  0  0  0  0
    3.4207   -2.9899   -0.7267 C   0  0  0  0  0  0  0  0  0  0  0  0
    4.3229   -2.0046   -1.1971 N   0  0  0  0  0  0  0  0  0  0  0  0
   -1.5069   -1.7923    0.8104 H   0  0  0  0  0  0  0  0  0  0  0  0
   -0.0002    0.0001    0.0000 H   0  0  0  0  0  0  0  0  0  0  0  0
    2.2782   -0.5216   -0.7147 H   0  0  0  0  0  0  0  0  0  0  0  0
   -0.7270   -4.1249    0.9033 H   0  0  0  0  0  0  0  0  0  0  0  0
    1.0805   -5.8101    0.5374 H   0  0  0  0  0  0  0  0  0  0  0  0
    3.3728   -6.3444   -0.1827 H   0  0  0  0  0  0  0  0  0  0  0  0
    4.8788   -4.5652   -0.9886 H   0  0  0  0  0  0  0  0  0  0  0  0
    4.0057   -1.0635   -1.2853 H   0  0  0  0  0  0  0  0  0  0  0  0
    5.2229   -2.2896   -1.5179 H   0  0  0  0  0  0  0  0  0  0  0  0
  1  6  2  0
  1  2  1  0
  2  3  2  0
  3  4  1  0
  4 10  1  0
  4  5  2  0
  5  6  1  0
  5  7  1  0
  7  8  2  0
  8  9  1  0
  9 10  2  0
 10 11  1  0
  1 12  1  0
  2 13  1  0
  3 14  1  0
  6 15  1  0
  7 16  1  0
  8 17  1  0
  9 18  1  0
 11 19  1  0
 11 20  1  0
M  END
>  <_TriposChargeType>  (241) 
USER_CHARGES

>  <solvdG>  (241) 
-7.28

>  <fdG>  (241) 
-7.78

>  <fname>  (241) 
mobley_3843583

>  <cname>  (241) 
 naphthalen-1-amine

>  <dataset>  (241) 
FreeSolv

$$$$
acetone
     RDKit          3D

 10  9  0  0  0  0  0  0  0  0999 V2000
   -0.7025   -0.4113    0.7289 C   0  0  0  0  0  0  0  0  0  0  0  0
   -0.0565   -0.4470    2.0875 C   0  0  0  0  0  0  0  0  0  0  0  0
    0.1012   -1.5023    2.6993 O   0  0  0  0  0  0  0  0  0  0  0  0
    0.3848    0.8720    2.6618 C   0  0  0  0  0  0  0  0  0  0  0  0
   -1.7822   -0.2843    0.8401 H   0  0  0  0  0  0  0  0  0  0  0  0
   -0.2836    0.4123    0.1457 H   0  0  0  0  0  0  0  0  0  0  0  0
   -0.5092   -1.3507    0.2038 H   0  0  0  0  0  0  0  0  0  0  0  0
   -0.4296    1.3116    3.2444 H   0  0  0  0  0  0  0  0  0  0  0  0
    0.6478    1.5552    1.8505 H   0  0  0  0  0  0  0  0  0  0  0  0
    1.2448    0.7166    3.3178 H   0  0  0  0  0  0  0  0  0  0  0  0
  1  2  1  0
  2  3  2  0
  2  4  1  0
  1  5  1  0
  1  6  1  0
  1  7  1  0
  4  8  1  0
  4  9  1  0
  4 10  1  0
M  END
>  <_TriposChargeType>  (242) 
USER_CHARGES

>  <solvdG>  (242) 
-3.8

>  <fdG>  (242) 
-3.51

>  <fname>  (242) 
mobley_3867265

>  <cname>  (242) 
 acetone

>  <dataset>  (242) 
FreeSolv

$$$$
cyclopentanone
     RDKit          3D

 14 14  0  0  0  0  0  0  0  0999 V2000
    1.0223   -0.7754    0.9550 C   0  0  0  0  0  0  0  0  0  0  0  0
    1.5583    0.3514    0.0824 C   0  0  0  0  0  0  0  0  0  0  0  0
    0.3277    1.1760   -0.2732 C   0  0  0  0  0  0  0  0  0  0  0  0
   -0.7497    0.1232   -0.3013 C   0  0  0  0  0  0  0  0  0  0  0  0
   -1.8728    0.3078   -0.7522 O   0  0  0  0  0  0  0  0  0  0  0  0
   -0.2859   -1.1830    0.2893 C   0  0  0  0  0  0  0  0  0  0  0  0
    0.8287   -0.4017    1.9683 H   0  0  0  0  0  0  0  0  0  0  0  0
    1.7230   -1.6120    1.0320 H   0  0  0  0  0  0  0  0  0  0  0  0
    2.3196    0.9479    0.5934 H   0  0  0  0  0  0  0  0  0  0  0  0
    2.0086   -0.0642   -0.8272 H   0  0  0  0  0  0  0  0  0  0  0  0
    0.0940    1.9036    0.5091 H   0  0  0  0  0  0  0  0  0  0  0  0
    0.4326    1.6652   -1.2438 H   0  0  0  0  0  0  0  0  0  0  0  0
   -1.0061   -1.5725    1.0117 H   0  0  0  0  0  0  0  0  0  0  0  0
   -0.1172   -1.8996   -0.5195 H   0  0  0  0  0  0  0  0  0  0  0  0
  1  6  1  0
  1  2  1  0
  2  3  1  0
  3  4  1  0
  4  5  2  0
  4  6  1  0
  1  7  1  0
  1  8  1  0
  2  9  1  0
  2 10  1  0
  3 11  1  0
  3 12  1  0
  6 13  1  0
  6 14  1  0
M  END
>  <_TriposChargeType>  (243) 
USER_CHARGES

>  <solvdG>  (243) 
-4.7

>  <fdG>  (243) 
-3.89

>  <fname>  (243) 
mobley_3968043

>  <cname>  (243) 
 cyclopentanone

>  <dataset>  (243) 
FreeSolv

$$$$
methyl benzoate
     RDKit          3D

 18 18  0  0  0  0  0  0  0  0999 V2000
    0.5832   -1.0172   -3.5060 C   0  0  0  0  0  0  0  0  0  0  0  0
    0.6720   -1.0336   -2.0772 O   0  0  0  0  0  0  0  0  0  0  0  0
    1.9292   -1.0155   -1.5659 C   0  0  0  0  0  0  0  0  0  0  0  0
    2.9699   -0.9869   -2.2041 O   0  0  0  0  0  0  0  0  0  0  0  0
    1.8851   -1.0363   -0.1124 C   0  0  0  0  0  0  0  0  0  0  0  0
    2.9210   -1.6309    0.6081 C   0  0  0  0  0  0  0  0  0  0  0  0
    2.8783   -1.6520    2.0022 C   0  0  0  0  0  0  0  0  0  0  0  0
    1.7997   -1.0786    2.6757 C   0  0  0  0  0  0  0  0  0  0  0  0
    0.7638   -0.4841    1.9551 C   0  0  0  0  0  0  0  0  0  0  0  0
    0.8066   -0.4630    0.5610 C   0  0  0  0  0  0  0  0  0  0  0  0
   -0.4672   -1.0339   -3.8068 H   0  0  0  0  0  0  0  0  0  0  0  0
    1.1042   -1.8868   -3.9144 H   0  0  0  0  0  0  0  0  0  0  0  0
    1.0526   -0.1045   -3.8808 H   0  0  0  0  0  0  0  0  0  0  0  0
    3.7660   -2.0811    0.0935 H   0  0  0  0  0  0  0  0  0  0  0  0
    3.6850   -2.1145    2.5633 H   0  0  0  0  0  0  0  0  0  0  0  0
    1.7660   -1.0948    3.7610 H   0  0  0  0  0  0  0  0  0  0  0  0
   -0.0760   -0.0384    2.4800 H   0  0  0  0  0  0  0  0  0  0  0  0
   -0.0059    0.0036    0.0099 H   0  0  0  0  0  0  0  0  0  0  0  0
  1  2  1  0
  2  3  1  0
  3  4  2  0
  3  5  1  0
  5 10  2  0
  5  6  1  0
  6  7  2  0
  7  8  1  0
  8  9  2  0
  9 10  1  0
  1 11  1  0
  1 12  1  0
  1 13  1  0
  6 14  1  0
  7 15  1  0
  8 16  1  0
  9 17  1  0
 10 18  1  0
M  END
>  <_TriposChargeType>  (244) 
USER_CHARGES

>  <solvdG>  (244) 
-3.92

>  <fdG>  (244) 
-4.92

>  <fname>  (244) 
mobley_3968739

>  <cname>  (244) 
 methyl benzoate

>  <dataset>  (244) 
FreeSolv

$$$$
benzaldehyde
     RDKit          3D

 14 14  0  0  0  0  0  0  0  0999 V2000
    1.8851   -1.0363   -0.1124 C   0  0  0  0  0  0  0  0  0  0  0  0
    2.9210   -1.6309    0.6081 C   0  0  0  0  0  0  0  0  0  0  0  0
    2.8783   -1.6520    2.0022 C   0  0  0  0  0  0  0  0  0  0  0  0
    1.7997   -1.0786    2.6757 C   0  0  0  0  0  0  0  0  0  0  0  0
    0.7638   -0.4841    1.9551 C   0  0  0  0  0  0  0  0  0  0  0  0
    0.8066   -0.4630    0.5610 C   0  0  0  0  0  0  0  0  0  0  0  0
    1.7551   -1.1006    4.1291 C   0  0  0  0  0  0  0  0  0  0  0  0
    2.6394   -1.6105    4.8228 O   0  0  0  0  0  0  0  0  0  0  0  0
    1.9184   -1.0198   -1.1978 H   0  0  0  0  0  0  0  0  0  0  0  0
    3.7607   -2.0775    0.0838 H   0  0  0  0  0  0  0  0  0  0  0  0
    3.6911   -2.1179    2.5534 H   0  0  0  0  0  0  0  0  0  0  0  0
   -0.0814   -0.0344    2.4697 H   0  0  0  0  0  0  0  0  0  0  0  0
    0.0002    0.0000   -0.0002 H   0  0  0  0  0  0  0  0  0  0  0  0
    0.8753   -0.6315    4.6210 H   0  0  0  0  0  0  0  0  0  0  0  0
  1  6  2  0
  1  2  1  0
  2  3  2  0
  3  4  1  0
  4  5  2  0
  5  6  1  0
  4  7  1  0
  7  8  2  0
  1  9  1  0
  2 10  1  0
  3 11  1  0
  5 12  1  0
  6 13  1  0
  7 14  1  0
M  END
>  <_TriposChargeType>  (245) 
USER_CHARGES

>  <solvdG>  (245) 
-4.02

>  <fdG>  (245) 
-5.06

>  <fname>  (245) 
mobley_3969312

>  <cname>  (245) 
 benzaldehyde

>  <dataset>  (245) 
FreeSolv

$$$$
ethyl benzoate
     RDKit          3D

 21 21  0  0  0  0  0  0  0  0999 V2000
   -0.8756   -1.0406   -3.9097 C   0  0  0  0  0  0  0  0  0  0  0  0
    0.5832   -1.0172   -3.5060 C   0  0  0  0  0  0  0  0  0  0  0  0
    0.6720   -1.0336   -2.0772 O   0  0  0  0  0  0  0  0  0  0  0  0
    1.9292   -1.0155   -1.5659 C   0  0  0  0  0  0  0  0  0  0  0  0
    2.9699   -0.9869   -2.2041 O   0  0  0  0  0  0  0  0  0  0  0  0
    1.8851   -1.0363   -0.1124 C   0  0  0  0  0  0  0  0  0  0  0  0
    2.9210   -1.6309    0.6081 C   0  0  0  0  0  0  0  0  0  0  0  0
    2.8783   -1.6520    2.0022 C   0  0  0  0  0  0  0  0  0  0  0  0
    1.7997   -1.0786    2.6757 C   0  0  0  0  0  0  0  0  0  0  0  0
    0.7638   -0.4841    1.9551 C   0  0  0  0  0  0  0  0  0  0  0  0
    0.8066   -0.4630    0.5610 C   0  0  0  0  0  0  0  0  0  0  0  0
   -0.9795   -1.0288   -4.9983 H   0  0  0  0  0  0  0  0  0  0  0  0
   -1.3705   -1.9350   -3.5170 H   0  0  0  0  0  0  0  0  0  0  0  0
   -1.4047   -0.1762   -3.4950 H   0  0  0  0  0  0  0  0  0  0  0  0
    1.0701   -0.1111   -3.8789 H   0  0  0  0  0  0  0  0  0  0  0  0
    1.1053   -1.8934   -3.9017 H   0  0  0  0  0  0  0  0  0  0  0  0
    3.7660   -2.0811    0.0935 H   0  0  0  0  0  0  0  0  0  0  0  0
    3.6850   -2.1145    2.5633 H   0  0  0  0  0  0  0  0  0  0  0  0
    1.7660   -1.0948    3.7610 H   0  0  0  0  0  0  0  0  0  0  0  0
   -0.0760   -0.0384    2.4800 H   0  0  0  0  0  0  0  0  0  0  0  0
   -0.0059    0.0036    0.0099 H   0  0  0  0  0  0  0  0  0  0  0  0
  1  2  1  0
  2  3  1  0
  3  4  1  0
  4  5  2  0
  4  6  1  0
  6 11  2  0
  6  7  1  0
  7  8  2  0
  8  9  1  0
  9 10  2  0
 10 11  1  0
  1 12  1  0
  1 13  1  0
  1 14  1  0
  2 15  1  0
  2 16  1  0
  7 17  1  0
  8 18  1  0
  9 19  1  0
 10 20  1  0
 11 21  1  0
M  END
>  <_TriposChargeType>  (246) 
USER_CHARGES

>  <solvdG>  (246) 
-3.64

>  <fdG>  (246) 
-4.6

>  <fname>  (246) 
mobley_397645

>  <cname>  (246) 
 ethyl benzoate

>  <dataset>  (246) 
FreeSolv

$$$$
1,2,3,4,7-pentachlorodibenzo-p-dioxin
     RDKit          3D

 22 24  0  0  0  0  0  0  0  0999 V2000
   -1.0039   -0.2568    0.3257 C   0  0  0  0  0  0  0  0  0  0  0  0
   -1.4367   -1.5819    0.2693 C   0  0  0  0  0  0  0  0  0  0  0  0
   -2.7266   -1.9051    0.6889 C   0  0  0  0  0  0  0  0  0  0  0  0
   -3.5799   -0.9097    1.1626 C   0  0  0  0  0  0  0  0  0  0  0  0
   -3.1487    0.4152    1.2196 C   0  0  0  0  0  0  0  0  0  0  0  0
   -1.8584    0.7400    0.8000 C   0  0  0  0  0  0  0  0  0  0  0  0
   -1.3188    2.3730    0.8672 Cl  0  0  0  0  0  0  0  0  0  0  0  0
   -4.8561   -1.1828    1.5855 O   0  0  0  0  0  0  0  0  0  0  0  0
   -5.2389   -2.4982    1.5123 C   0  0  0  0  0  0  0  0  0  0  0  0
   -4.3856   -3.4936    1.0385 C   0  0  0  0  0  0  0  0  0  0  0  0
   -4.8168   -4.8184    0.9815 C   0  0  0  0  0  0  0  0  0  0  0  0
   -6.1071   -5.1433    1.4010 C   0  0  0  0  0  0  0  0  0  0  0  0
   -6.9616   -4.1465    1.8755 C   0  0  0  0  0  0  0  0  0  0  0  0
   -6.5287   -2.8214    1.9320 C   0  0  0  0  0  0  0  0  0  0  0  0
   -7.5640   -1.5543    2.5178 Cl  0  0  0  0  0  0  0  0  0  0  0  0
   -8.5733   -4.5507    2.3994 Cl  0  0  0  0  0  0  0  0  0  0  0  0
   -6.6463   -6.7985    1.3300 Cl  0  0  0  0  0  0  0  0  0  0  0  0
   -3.7251   -6.0322    0.3854 Cl  0  0  0  0  0  0  0  0  0  0  0  0
   -3.1093   -3.2205    0.6157 O   0  0  0  0  0  0  0  0  0  0  0  0
    0.0034   -0.0147   -0.0037 H   0  0  0  0  0  0  0  0  0  0  0  0
   -0.7665   -2.3526   -0.1009 H   0  0  0  0  0  0  0  0  0  0  0  0
   -3.8198    1.1863    1.5901 H   0  0  0  0  0  0  0  0  0  0  0  0
  1  6  2  0
  1  2  1  0
  2  3  2  0
  3 19  1  0
  3  4  1  0
  4  5  2  0
  5  6  1  0
  6  7  1  0
  4  8  1  0
  8  9  1  0
  9 14  2  0
  9 10  1  0
 10 11  2  0
 11 12  1  0
 12 13  2  0
 13 14  1  0
 14 15  1  0
 13 16  1  0
 12 17  1  0
 11 18  1  0
 10 19  1  0
  1 20  1  0
  2 21  1  0
  5 22  1  0
M  END
>  <_TriposChargeType>  (247) 
USER_CHARGES

>  <solvdG>  (247) 
-4.15

>  <fdG>  (247) 
-2.31

>  <fname>  (247) 
mobley_3976574

>  <cname>  (247) 
 1,2,3,4,7-pentachlorodibenzo-p-dioxin

>  <dataset>  (247) 
FreeSolv

$$$$
1,2,3-trichlorobenzene
     RDKit          3D

 12 12  0  0  0  0  0  0  0  0999 V2000
    1.8851   -1.0363   -0.1124 C   0  0  0  0  0  0  0  0  0  0  0  0
    2.9210   -1.6309    0.6081 C   0  0  0  0  0  0  0  0  0  0  0  0
    2.8783   -1.6520    2.0022 C   0  0  0  0  0  0  0  0  0  0  0  0
    1.7997   -1.0786    2.6757 C   0  0  0  0  0  0  0  0  0  0  0  0
    0.7638   -0.4841    1.9551 C   0  0  0  0  0  0  0  0  0  0  0  0
    0.8066   -0.4630    0.5610 C   0  0  0  0  0  0  0  0  0  0  0  0
   -0.6056    0.2467    2.7198 Cl  0  0  0  0  0  0  0  0  0  0  0  0
    1.7464   -1.1050    4.4130 Cl  0  0  0  0  0  0  0  0  0  0  0  0
    4.1990   -2.4069    2.8268 Cl  0  0  0  0  0  0  0  0  0  0  0  0
    1.9184   -1.0198   -1.1979 H   0  0  0  0  0  0  0  0  0  0  0  0
    3.7535   -2.0727    0.0662 H   0  0  0  0  0  0  0  0  0  0  0  0
    0.0084   -0.0042   -0.0173 H   0  0  0  0  0  0  0  0  0  0  0  0
  1  6  2  0
  1  2  1  0
  2  3  2  0
  3  4  1  0
  4  5  2  0
  5  6  1  0
  5  7  1  0
  4  8  1  0
  3  9  1  0
  1 10  1  0
  2 11  1  0
  6 12  1  0
M  END
>  <_TriposChargeType>  (248) 
USER_CHARGES

>  <solvdG>  (248) 
-1.24

>  <fdG>  (248) 
-0.51

>  <fname>  (248) 
mobley_3980099

>  <cname>  (248) 
 1,2,3-trichlorobenzene

>  <dataset>  (248) 
FreeSolv

$$$$
methyl acetate
     RDKit          3D

 11 10  0  0  0  0  0  0  0  0999 V2000
   -0.9373   -0.5552    0.0879 C   0  0  0  0  0  0  0  0  0  0  0  0
   -1.6376   -0.5840   -1.2367 C   0  0  0  0  0  0  0  0  0  0  0  0
   -1.9037   -1.6095   -1.8489 O   0  0  0  0  0  0  0  0  0  0  0  0
   -1.9187    0.6904   -1.6316 O   0  0  0  0  0  0  0  0  0  0  0  0
   -2.5912    0.8103   -2.8891 C   0  0  0  0  0  0  0  0  0  0  0  0
    0.1431   -0.4965   -0.0649 H   0  0  0  0  0  0  0  0  0  0  0  0
   -1.1972   -1.4466    0.6644 H   0  0  0  0  0  0  0  0  0  0  0  0
   -1.2585    0.3273    0.6488 H   0  0  0  0  0  0  0  0  0  0  0  0
   -2.7605    1.8646   -3.0962 H   0  0  0  0  0  0  0  0  0  0  0  0
   -3.5343    0.2706   -2.8345 H   0  0  0  0  0  0  0  0  0  0  0  0
   -1.9557    0.3759   -3.6575 H   0  0  0  0  0  0  0  0  0  0  0  0
  1  2  1  0
  2  3  2  0
  2  4  1  0
  4  5  1  0
  1  6  1  0
  1  7  1  0
  1  8  1  0
  5  9  1  0
  5 10  1  0
  5 11  1  0
M  END
>  <_TriposChargeType>  (249) 
USER_CHARGES

>  <solvdG>  (249) 
-3.13

>  <fdG>  (249) 
-3.83

>  <fname>  (249) 
mobley_3982371

>  <cname>  (249) 
 methyl acetate

>  <dataset>  (249) 
FreeSolv

$$$$
1,1-dichloroethane
     RDKit          3D

  8  7  0  0  0  0  0  0  0  0999 V2000
   -0.4712    0.6837    0.7145 C   0  0  0  0  0  0  0  0  0  0  0  0
   -0.0877    0.3252    2.1389 C   0  0  0  0  0  0  0  0  0  0  0  0
   -0.8870    1.4225    3.2882 Cl  0  0  0  0  0  0  0  0  0  0  0  0
    1.6769    0.4133    2.3441 Cl  0  0  0  0  0  0  0  0  0  0  0  0
    0.0087    0.0215   -0.0149 H   0  0  0  0  0  0  0  0  0  0  0  0
   -1.5550    0.6109    0.5724 H   0  0  0  0  0  0  0  0  0  0  0  0
   -0.1776    1.7126    0.4791 H   0  0  0  0  0  0  0  0  0  0  0  0
   -0.4016   -0.6948    2.3770 H   0  0  0  0  0  0  0  0  0  0  0  0
  1  2  1  0
  2  3  1  0
  2  4  1  0
  1  5  1  0
  1  6  1  0
  1  7  1  0
  2  8  1  0
M  END
>  <_TriposChargeType>  (250) 
USER_CHARGES

>  <solvdG>  (250) 
-0.84

>  <fdG>  (250) 
0.19

>  <fname>  (250) 
mobley_3999471

>  <cname>  (250) 
 1,1-dichloroethane

>  <dataset>  (250) 
FreeSolv

$$$$
2,4-dimethylpentan-3-one
     RDKit          3D

 22 21  0  0  0  0  0  0  0  0999 V2000
    2.2497    1.2047    0.3014 C   0  0  0  0  0  0  0  0  0  0  0  0
    0.8442    0.9854   -0.2503 C   0  0  0  0  0  0  0  0  0  0  0  0
    0.0384    2.2787   -0.2281 C   0  0  0  0  0  0  0  0  0  0  0  0
    0.1056   -0.0864    0.5492 C   0  0  0  0  0  0  0  0  0  0  0  0
    0.3363   -0.2748    1.7444 O   0  0  0  0  0  0  0  0  0  0  0  0
   -0.9338   -0.9126   -0.2061 C   0  0  0  0  0  0  0  0  0  0  0  0
   -2.0525   -1.3659    0.7272 C   0  0  0  0  0  0  0  0  0  0  0  0
   -0.2516   -2.1058   -0.8644 C   0  0  0  0  0  0  0  0  0  0  0  0
    2.8363    0.2794    0.2891 H   0  0  0  0  0  0  0  0  0  0  0  0
    2.2094    1.5658    1.3344 H   0  0  0  0  0  0  0  0  0  0  0  0
    2.7898    1.9468   -0.2965 H   0  0  0  0  0  0  0  0  0  0  0  0
    0.9406    0.6340   -1.2841 H   0  0  0  0  0  0  0  0  0  0  0  0
   -0.9704    2.1212   -0.6241 H   0  0  0  0  0  0  0  0  0  0  0  0
   -0.0676    2.6632    0.7925 H   0  0  0  0  0  0  0  0  0  0  0  0
    0.5221    3.0505   -0.8355 H   0  0  0  0  0  0  0  0  0  0  0  0
   -1.3795   -0.2756   -0.9789 H   0  0  0  0  0  0  0  0  0  0  0  0
   -2.7961   -1.9580    0.1827 H   0  0  0  0  0  0  0  0  0  0  0  0
   -1.6545   -1.9843    1.5385 H   0  0  0  0  0  0  0  0  0  0  0  0
   -2.5733   -0.5127    1.1763 H   0  0  0  0  0  0  0  0  0  0  0  0
   -0.9720   -2.7203   -1.4158 H   0  0  0  0  0  0  0  0  0  0  0  0
    0.5224   -1.7755   -1.5647 H   0  0  0  0  0  0  0  0  0  0  0  0
    0.2230   -2.7504   -0.1171 H   0  0  0  0  0  0  0  0  0  0  0  0
  1  2  1  0
  2  3  1  0
  2  4  1  0
  4  5  2  0
  4  6  1  0
  6  7  1  0
  6  8  1  0
  1  9  1  0
  1 10  1  0
  1 11  1  0
  2 12  1  0
  3 13  1  0
  3 14  1  0
  3 15  1  0
  6 16  1  0
  7 17  1  0
  7 18  1  0
  7 19  1  0
  8 20  1  0
  8 21  1  0
  8 22  1  0
M  END
>  <_TriposChargeType>  (251) 
USER_CHARGES

>  <solvdG>  (251) 
-2.74

>  <fdG>  (251) 
-2.63

>  <fname>  (251) 
mobley_4013838

>  <cname>  (251) 
 2,4-dimethylpentan-3-one

>  <dataset>  (251) 
FreeSolv

$$$$
o-cresol
     RDKit          3D

 16 16  0  0  0  0  0  0  0  0999 V2000
    1.9474   -1.0231   -1.6040 C   0  0  0  0  0  0  0  0  0  0  0  0
    1.8851   -1.0363   -0.1124 C   0  0  0  0  0  0  0  0  0  0  0  0
    2.9210   -1.6309    0.6081 C   0  0  0  0  0  0  0  0  0  0  0  0
    2.8783   -1.6520    2.0022 C   0  0  0  0  0  0  0  0  0  0  0  0
    1.7997   -1.0786    2.6757 C   0  0  0  0  0  0  0  0  0  0  0  0
    0.7638   -0.4841    1.9551 C   0  0  0  0  0  0  0  0  0  0  0  0
    0.8066   -0.4630    0.5610 C   0  0  0  0  0  0  0  0  0  0  0  0
   -0.2138    0.1210   -0.1275 O   0  0  0  0  0  0  0  0  0  0  0  0
    2.4593   -0.1197   -1.9495 H   0  0  0  0  0  0  0  0  0  0  0  0
    2.4841   -1.9001   -1.9807 H   0  0  0  0  0  0  0  0  0  0  0  0
    0.9420   -1.0480   -2.0375 H   0  0  0  0  0  0  0  0  0  0  0  0
    3.7662   -2.0795    0.0929 H   0  0  0  0  0  0  0  0  0  0  0  0
    3.6849   -2.1142    2.5640 H   0  0  0  0  0  0  0  0  0  0  0  0
    1.7669   -1.0937    3.7611 H   0  0  0  0  0  0  0  0  0  0  0  0
   -0.0736   -0.0391    2.4855 H   0  0  0  0  0  0  0  0  0  0  0  0
   -0.8784    0.4674    0.4884 H   0  0  0  0  0  0  0  0  0  0  0  0
  1  2  1  0
  2  7  2  0
  2  3  1  0
  3  4  2  0
  4  5  1  0
  5  6  2  0
  6  7  1  0
  7  8  1  0
  1  9  1  0
  1 10  1  0
  1 11  1  0
  3 12  1  0
  4 13  1  0
  5 14  1  0
  6 15  1  0
  8 16  1  0
M  END
>  <_TriposChargeType>  (252) 
USER_CHARGES

>  <solvdG>  (252) 
-5.9

>  <fdG>  (252) 
-5.08

>  <fname>  (252) 
mobley_4035953

>  <cname>  (252) 
 o-cresol

>  <dataset>  (252) 
FreeSolv

$$$$
5-bromo-1H-pyrimidine-2,4-dione
     RDKit          3D

 12 12  0  0  0  0  0  0  0  0999 V2000
    0.7469    1.3015   -0.1109 C   0  0  0  0  0  0  0  0  0  0  0  0
   -0.2265    0.9655    0.7428 C   0  0  0  0  0  0  0  0  0  0  0  0
   -0.8159   -0.4016    0.6527 C   0  0  0  0  0  0  0  0  0  0  0  0
   -1.7123   -0.7774    1.4035 O   0  0  0  0  0  0  0  0  0  0  0  0
   -0.2702   -1.2046   -0.3427 N   0  0  0  0  0  0  0  0  0  0  0  0
    0.7469   -0.8471   -1.2308 C   0  0  0  0  0  0  0  0  0  0  0  0
    1.1809   -1.6156   -2.0894 O   0  0  0  0  0  0  0  0  0  0  0  0
    1.2243    0.4429   -1.0629 N   0  0  0  0  0  0  0  0  0  0  0  0
   -0.8740    2.1363    2.0377 Br  0  0  0  0  0  0  0  0  0  0  0  0
    1.2195    2.2773   -0.1039 H   0  0  0  0  0  0  0  0  0  0  0  0
   -0.6471   -2.1440   -0.4327 H   0  0  0  0  0  0  0  0  0  0  0  0
    1.9654    0.7671   -1.6772 H   0  0  0  0  0  0  0  0  0  0  0  0
  1  8  1  0
  1  2  2  0
  2  3  1  0
  3  4  2  0
  3  5  1  0
  5  6  1  0
  6  7  2  0
  6  8  1  0
  2  9  1  0
  1 10  1  0
  5 11  1  0
  8 12  1  0
M  END
>  <_TriposChargeType>  (253) 
USER_CHARGES

>  <solvdG>  (253) 
-18.17

>  <fdG>  (253) 
-17.3

>  <fname>  (253) 
mobley_4039055

>  <cname>  (253) 
 5-bromouracil

>  <dataset>  (253) 
FreeSolv

$$$$
pent-1-ene
     RDKit          3D

 15 14  0  0  0  0  0  0  0  0999 V2000
    4.2249   -3.9908   -0.0063 C   0  0  0  0  0  0  0  0  0  0  0  0
    3.2901   -2.9173   -0.5418 C   0  0  0  0  0  0  0  0  0  0  0  0
    1.9937   -2.8514    0.2660 C   0  0  0  0  0  0  0  0  0  0  0  0
    1.0744   -1.7916   -0.2651 C   0  0  0  0  0  0  0  0  0  0  0  0
    0.6443   -0.7470    0.4513 C   0  0  0  0  0  0  0  0  0  0  0  0
    5.1504   -4.0319   -0.5896 H   0  0  0  0  0  0  0  0  0  0  0  0
    3.7450   -4.9730   -0.0616 H   0  0  0  0  0  0  0  0  0  0  0  0
    4.4853   -3.7982    1.0393 H   0  0  0  0  0  0  0  0  0  0  0  0
    3.8022   -1.9479   -0.5099 H   0  0  0  0  0  0  0  0  0  0  0  0
    3.0682   -3.1292   -1.5949 H   0  0  0  0  0  0  0  0  0  0  0  0
    2.2264   -2.6698    1.3225 H   0  0  0  0  0  0  0  0  0  0  0  0
    1.4756   -3.8166    0.2164 H   0  0  0  0  0  0  0  0  0  0  0  0
    0.7353   -1.8935   -1.2928 H   0  0  0  0  0  0  0  0  0  0  0  0
   -0.0209   -0.0028    0.0273 H   0  0  0  0  0  0  0  0  0  0  0  0
    0.9551   -0.6233    1.4829 H   0  0  0  0  0  0  0  0  0  0  0  0
  1  2  1  0
  2  3  1  0
  3  4  1  0
  4  5  2  3
  1  6  1  0
  1  7  1  0
  1  8  1  0
  2  9  1  0
  2 10  1  0
  3 11  1  0
  3 12  1  0
  4 13  1  0
  5 14  1  0
  5 15  1  0
M  END
>  <_TriposChargeType>  (254) 
USER_CHARGES

>  <solvdG>  (254) 
1.68

>  <fdG>  (254) 
2.53

>  <fname>  (254) 
mobley_4043951

>  <cname>  (254) 
 pent-1-ene

>  <dataset>  (254) 
FreeSolv

$$$$
2-methylhexane
     RDKit          3D

 23 22  0  0  0  0  0  0  0  0999 V2000
   -0.5188    0.6341   -0.8646 C   0  0  0  0  0  0  0  0  0  0  0  0
   -1.5688    1.5501   -0.2565 C   0  0  0  0  0  0  0  0  0  0  0  0
   -2.6296    0.7568    0.5083 C   0  0  0  0  0  0  0  0  0  0  0  0
   -3.6835    1.6862    1.1179 C   0  0  0  0  0  0  0  0  0  0  0  0
   -4.7797    0.9408    1.9017 C   0  0  0  0  0  0  0  0  0  0  0  0
   -4.1494    0.1528    3.0528 C   0  0  0  0  0  0  0  0  0  0  0  0
   -5.8514    1.8847    2.4493 C   0  0  0  0  0  0  0  0  0  0  0  0
    0.2288    1.2217   -1.4061 H   0  0  0  0  0  0  0  0  0  0  0  0
   -0.0027    0.0596   -0.0889 H   0  0  0  0  0  0  0  0  0  0  0  0
   -0.9727   -0.0702   -1.5691 H   0  0  0  0  0  0  0  0  0  0  0  0
   -2.0434    2.1330   -1.0543 H   0  0  0  0  0  0  0  0  0  0  0  0
   -1.0774    2.2617    0.4172 H   0  0  0  0  0  0  0  0  0  0  0  0
   -3.1049    0.0461   -0.1766 H   0  0  0  0  0  0  0  0  0  0  0  0
   -2.1493    0.1735    1.3031 H   0  0  0  0  0  0  0  0  0  0  0  0
   -3.1816    2.3892    1.7954 H   0  0  0  0  0  0  0  0  0  0  0  0
   -4.1406    2.2891    0.3227 H   0  0  0  0  0  0  0  0  0  0  0  0
   -5.2661    0.2220    1.2298 H   0  0  0  0  0  0  0  0  0  0  0  0
   -4.9092   -0.3877    3.6275 H   0  0  0  0  0  0  0  0  0  0  0  0
   -3.4265   -0.5780    2.6748 H   0  0  0  0  0  0  0  0  0  0  0  0
   -3.6179    0.8219    3.7377 H   0  0  0  0  0  0  0  0  0  0  0  0
   -6.6202    1.3345    3.0025 H   0  0  0  0  0  0  0  0  0  0  0  0
   -6.3444    2.4266    1.6348 H   0  0  0  0  0  0  0  0  0  0  0  0
   -5.4185    2.6338    3.1189 H   0  0  0  0  0  0  0  0  0  0  0  0
  1  2  1  0
  2  3  1  0
  3  4  1  0
  4  5  1  0
  5  6  1  0
  5  7  1  0
  1  8  1  0
  1  9  1  0
  1 10  1  0
  2 11  1  0
  2 12  1  0
  3 13  1  0
  3 14  1  0
  4 15  1  0
  4 16  1  0
  5 17  1  0
  6 18  1  0
  6 19  1  0
  6 20  1  0
  7 21  1  0
  7 22  1  0
  7 23  1  0
M  END
>  <_TriposChargeType>  (255) 
USER_CHARGES

>  <solvdG>  (255) 
2.93

>  <fdG>  (255) 
2.89

>  <fname>  (255) 
mobley_4043987

>  <cname>  (255) 
 2-methylhexane

>  <dataset>  (255) 
FreeSolv

$$$$
1,4-dimethylpiperazine
     RDKit          3D

 22 22  0  0  0  0  0  0  0  0999 V2000
    1.8318    0.0009    1.9360 C   0  0  0  0  0  0  0  0  0  0  0  0
    1.6130   -1.0119    0.9052 N   0  0  0  0  0  0  0  0  0  0  0  0
    2.8769   -1.6606    0.5350 C   0  0  0  0  0  0  0  0  0  0  0  0
    2.6493   -2.7208   -0.5481 C   0  0  0  0  0  0  0  0  0  0  0  0
    2.0113   -2.1302   -1.7310 N   0  0  0  0  0  0  0  0  0  0  0  0
    0.7469   -1.4824   -1.3611 C   0  0  0  0  0  0  0  0  0  0  0  0
    0.9733   -0.4226   -0.2775 C   0  0  0  0  0  0  0  0  0  0  0  0
    1.7938   -3.1419   -2.7630 C   0  0  0  0  0  0  0  0  0  0  0  0
    2.3081   -0.4499    2.8105 H   0  0  0  0  0  0  0  0  0  0  0  0
    0.8787    0.4408    2.2419 H   0  0  0  0  0  0  0  0  0  0  0  0
    2.4780    0.7957    1.5538 H   0  0  0  0  0  0  0  0  0  0  0  0
    3.6076   -0.9212    0.1800 H   0  0  0  0  0  0  0  0  0  0  0  0
    3.3116   -2.1530    1.4133 H   0  0  0  0  0  0  0  0  0  0  0  0
    3.6222   -3.1450   -0.8247 H   0  0  0  0  0  0  0  0  0  0  0  0
    2.0398   -3.5393   -0.1414 H   0  0  0  0  0  0  0  0  0  0  0  0
    0.3122   -0.9898   -2.2394 H   0  0  0  0  0  0  0  0  0  0  0  0
    0.0164   -2.2224   -1.0068 H   0  0  0  0  0  0  0  0  0  0  0  0
    1.5814    0.3969   -0.6843 H   0  0  0  0  0  0  0  0  0  0  0  0
    0.0001    0.0004   -0.0003 H   0  0  0  0  0  0  0  0  0  0  0  0
    1.3223   -2.6733   -3.6206 H   0  0  0  0  0  0  0  0  0  0  0  0
    1.1505   -3.9202   -2.3653 H   0  0  0  0  0  0  0  0  0  0  0  0
    2.7507   -3.5649   -3.0510 H   0  0  0  0  0  0  0  0  0  0  0  0
  1  2  1  0
  2  7  1  0
  2  3  1  0
  3  4  1  0
  4  5  1  0
  5  6  1  0
  6  7  1  0
  5  8  1  0
  1  9  1  0
  1 10  1  0
  1 11  1  0
  3 12  1  0
  3 13  1  0
  4 14  1  0
  4 15  1  0
  6 16  1  0
  6 17  1  0
  7 18  1  0
  7 19  1  0
  8 20  1  0
  8 21  1  0
  8 22  1  0
M  END
>  <_TriposChargeType>  (256) 
USER_CHARGES

>  <solvdG>  (256) 
-7.58

>  <fdG>  (256) 
-7.87

>  <fname>  (256) 
mobley_4059279

>  <cname>  (256) 
 1,4-dimethylpiperazine

>  <dataset>  (256) 
FreeSolv

$$$$
2,7-dichlorodibenzo-p-dioxin
     RDKit          3D

 22 24  0  0  0  0  0  0  0  0999 V2000
   -1.0039   -0.2568    0.3257 C   0  0  0  0  0  0  0  0  0  0  0  0
   -1.4367   -1.5819    0.2693 C   0  0  0  0  0  0  0  0  0  0  0  0
   -2.7266   -1.9051    0.6889 C   0  0  0  0  0  0  0  0  0  0  0  0
   -3.5799   -0.9097    1.1626 C   0  0  0  0  0  0  0  0  0  0  0  0
   -3.1487    0.4152    1.2196 C   0  0  0  0  0  0  0  0  0  0  0  0
   -1.8584    0.7400    0.8000 C   0  0  0  0  0  0  0  0  0  0  0  0
   -1.3185    2.3729    0.8663 Cl  0  0  0  0  0  0  0  0  0  0  0  0
   -4.8561   -1.1828    1.5855 O   0  0  0  0  0  0  0  0  0  0  0  0
   -5.2389   -2.4982    1.5123 C   0  0  0  0  0  0  0  0  0  0  0  0
   -6.5287   -2.8214    1.9320 C   0  0  0  0  0  0  0  0  0  0  0  0
   -6.9616   -4.1465    1.8755 C   0  0  0  0  0  0  0  0  0  0  0  0
   -6.1071   -5.1433    1.4010 C   0  0  0  0  0  0  0  0  0  0  0  0
   -4.8168   -4.8184    0.9815 C   0  0  0  0  0  0  0  0  0  0  0  0
   -4.3856   -3.4936    1.0385 C   0  0  0  0  0  0  0  0  0  0  0  0
   -3.1093   -3.2205    0.6157 O   0  0  0  0  0  0  0  0  0  0  0  0
   -6.6467   -6.7763    1.3347 Cl  0  0  0  0  0  0  0  0  0  0  0  0
    0.0033   -0.0145   -0.0035 H   0  0  0  0  0  0  0  0  0  0  0  0
   -0.7664   -2.3525   -0.1011 H   0  0  0  0  0  0  0  0  0  0  0  0
   -3.8192    1.1867    1.5897 H   0  0  0  0  0  0  0  0  0  0  0  0
   -7.1990   -2.0508    2.3024 H   0  0  0  0  0  0  0  0  0  0  0  0
   -7.9687   -4.3890    2.2051 H   0  0  0  0  0  0  0  0  0  0  0  0
   -4.1464   -5.5899    0.6109 H   0  0  0  0  0  0  0  0  0  0  0  0
  1  6  2  0
  1  2  1  0
  2  3  2  0
  3 15  1  0
  3  4  1  0
  4  5  2  0
  5  6  1  0
  6  7  1  0
  4  8  1  0
  8  9  1  0
  9 14  2  0
  9 10  1  0
 10 11  2  0
 11 12  1  0
 12 13  2  0
 13 14  1  0
 14 15  1  0
 12 16  1  0
  1 17  1  0
  2 18  1  0
  5 19  1  0
 10 20  1  0
 11 21  1  0
 13 22  1  0
M  END
>  <_TriposChargeType>  (257) 
USER_CHARGES

>  <solvdG>  (257) 
-3.67

>  <fdG>  (257) 
-3.32

>  <fname>  (257) 
mobley_4149784

>  <cname>  (257) 
 2,7-dichlorodibenzo-p-dioxin

>  <dataset>  (257) 
FreeSolv

$$$$
2,3,4-trimethylpentane
     RDKit          3D

 26 25  0  0  0  0  0  0  0  0999 V2000
    0.0591    0.7129   -2.0778 C   0  0  0  0  0  0  0  0  0  0  0  0
    0.9437    0.3198   -0.8916 C   0  0  0  0  0  0  0  0  0  0  0  0
    2.1524    1.2625   -0.8189 C   0  0  0  0  0  0  0  0  0  0  0  0
    0.1743    0.2355    0.4654 C   0  0  0  0  0  0  0  0  0  0  0  0
   -0.4691    1.5805    0.8462 C   0  0  0  0  0  0  0  0  0  0  0  0
   -0.8811   -0.9188    0.5146 C   0  0  0  0  0  0  0  0  0  0  0  0
   -0.3800   -2.2047   -0.1554 C   0  0  0  0  0  0  0  0  0  0  0  0
   -1.2974   -1.2588    1.9536 C   0  0  0  0  0  0  0  0  0  0  0  0
   -0.8164    0.0620   -2.1639 H   0  0  0  0  0  0  0  0  0  0  0  0
   -0.3050    1.7397   -1.9595 H   0  0  0  0  0  0  0  0  0  0  0  0
    0.6103    0.6731   -3.0214 H   0  0  0  0  0  0  0  0  0  0  0  0
    1.3622   -0.6706   -1.1059 H   0  0  0  0  0  0  0  0  0  0  0  0
    2.8025    1.0022    0.0229 H   0  0  0  0  0  0  0  0  0  0  0  0
    1.8540    2.3101   -0.7160 H   0  0  0  0  0  0  0  0  0  0  0  0
    2.7498    1.1845   -1.7342 H   0  0  0  0  0  0  0  0  0  0  0  0
    0.9261    0.0165    1.2375 H   0  0  0  0  0  0  0  0  0  0  0  0
   -1.0077    1.5226    1.7956 H   0  0  0  0  0  0  0  0  0  0  0  0
   -1.2087    1.8900    0.1013 H   0  0  0  0  0  0  0  0  0  0  0  0
    0.2801    2.3746    0.9256 H   0  0  0  0  0  0  0  0  0  0  0  0
   -1.7871   -0.5982   -0.0143 H   0  0  0  0  0  0  0  0  0  0  0  0
   -1.1387   -2.9937   -0.1057 H   0  0  0  0  0  0  0  0  0  0  0  0
   -0.1634   -2.0481   -1.2160 H   0  0  0  0  0  0  0  0  0  0  0  0
    0.5264   -2.5778    0.3330 H   0  0  0  0  0  0  0  0  0  0  0  0
   -2.0349   -2.0661    1.9789 H   0  0  0  0  0  0  0  0  0  0  0  0
   -1.7220   -0.3856    2.4599 H   0  0  0  0  0  0  0  0  0  0  0  0
   -0.4371   -1.6025    2.5388 H   0  0  0  0  0  0  0  0  0  0  0  0
  1  2  1  0
  2  3  1  0
  2  4  1  0
  4  5  1  0
  4  6  1  0
  6  7  1  0
  6  8  1  0
  1  9  1  0
  1 10  1  0
  1 11  1  0
  2 12  1  0
  3 13  1  0
  3 14  1  0
  3 15  1  0
  4 16  1  0
  5 17  1  0
  5 18  1  0
  5 19  1  0
  6 20  1  0
  7 21  1  0
  7 22  1  0
  7 23  1  0
  8 24  1  0
  8 25  1  0
  8 26  1  0
M  END
>  <_TriposChargeType>  (258) 
USER_CHARGES

>  <solvdG>  (258) 
2.56

>  <fdG>  (258) 
2.67

>  <fname>  (258) 
mobley_4177472

>  <cname>  (258) 
 2,3,4-trimethylpentane

>  <dataset>  (258) 
FreeSolv

$$$$
N,N-dimethylbenzamide
     RDKit          3D

 22 22  0  0  0  0  0  0  0  0999 V2000
    0.9454   -0.0479   -0.2111 C   0  0  0  0  0  0  0  0  0  0  0  0
    1.3874    0.6315   -1.4208 N   0  0  0  0  0  0  0  0  0  0  0  0
    0.7920    0.1554   -2.6675 C   0  0  0  0  0  0  0  0  0  0  0  0
    2.3234    1.6663   -1.3232 C   0  0  0  0  0  0  0  0  0  0  0  0
    2.8288    2.0742   -0.2781 O   0  0  0  0  0  0  0  0  0  0  0  0
    2.7669    2.3258   -2.5617 C   0  0  0  0  0  0  0  0  0  0  0  0
    3.8753    1.8374   -3.2535 C   0  0  0  0  0  0  0  0  0  0  0  0
    4.2965    2.4632   -4.4267 C   0  0  0  0  0  0  0  0  0  0  0  0
    3.6094    3.5776   -4.9082 C   0  0  0  0  0  0  0  0  0  0  0  0
    2.5010    4.0660   -4.2163 C   0  0  0  0  0  0  0  0  0  0  0  0
    2.0798    3.4402   -3.0430 C   0  0  0  0  0  0  0  0  0  0  0  0
    1.5930   -0.9036   -0.0029 H   0  0  0  0  0  0  0  0  0  0  0  0
   -0.0811   -0.4045   -0.3315 H   0  0  0  0  0  0  0  0  0  0  0  0
    0.9811    0.6361    0.6411 H   0  0  0  0  0  0  0  0  0  0  0  0
   -0.1128    0.7212   -2.8636 H   0  0  0  0  0  0  0  0  0  0  0  0
    0.5554   -0.8990   -2.5667 H   0  0  0  0  0  0  0  0  0  0  0  0
    1.5016    0.2990   -3.4760 H   0  0  0  0  0  0  0  0  0  0  0  0
    4.4184    0.9700   -2.8871 H   0  0  0  0  0  0  0  0  0  0  0  0
    5.1592    2.0827   -4.9657 H   0  0  0  0  0  0  0  0  0  0  0  0
    3.9369    4.0652   -5.8216 H   0  0  0  0  0  0  0  0  0  0  0  0
    1.9668    4.9341   -4.5913 H   0  0  0  0  0  0  0  0  0  0  0  0
    1.2144    3.8292   -2.5126 H   0  0  0  0  0  0  0  0  0  0  0  0
  1  2  1  0
  2  3  1  0
  2  4  1  0
  4  5  2  0
  4  6  1  0
  6 11  2  0
  6  7  1  0
  7  8  2  0
  8  9  1  0
  9 10  2  0
 10 11  1  0
  1 12  1  0
  1 13  1  0
  1 14  1  0
  3 15  1  0
  3 16  1  0
  3 17  1  0
  7 18  1  0
  8 19  1  0
  9 20  1  0
 10 21  1  0
 11 22  1  0
M  END
>  <_TriposChargeType>  (259) 
USER_CHARGES

>  <solvdG>  (259) 
-9.29

>  <fdG>  (259) 
-8.11

>  <fname>  (259) 
mobley_4188615

>  <cname>  (259) 
 N,N-dimethylbenzamide

>  <dataset>  (259) 
FreeSolv

$$$$
nitrobenzene
     RDKit          3D

 14 14  0  0  0  0  0  0  0  0999 V2000
    1.8851   -1.0363   -0.1124 C   0  0  0  0  0  0  0  0  0  0  0  0
    2.9210   -1.6309    0.6081 C   0  0  0  0  0  0  0  0  0  0  0  0
    2.8783   -1.6520    2.0022 C   0  0  0  0  0  0  0  0  0  0  0  0
    1.7997   -1.0786    2.6757 C   0  0  0  0  0  0  0  0  0  0  0  0
    0.7638   -0.4841    1.9551 C   0  0  0  0  0  0  0  0  0  0  0  0
    0.8066   -0.4630    0.5610 C   0  0  0  0  0  0  0  0  0  0  0  0
    1.7559   -1.1004    4.0947 N   0  0  0  0  0  4  0  0  0  0  0  0
    0.7767   -0.5789    4.6810 O   0  0  0  0  0  0  0  0  0  0  0  0
    2.6978   -1.6404    4.7239 O   0  0  0  0  0  1  0  0  0  0  0  0
    1.9180   -1.0212   -1.1979 H   0  0  0  0  0  0  0  0  0  0  0  0
    3.7604   -2.0780    0.0838 H   0  0  0  0  0  0  0  0  0  0  0  0
    3.6922   -2.1188    2.5516 H   0  0  0  0  0  0  0  0  0  0  0  0
   -0.0829   -0.0338    2.4679 H   0  0  0  0  0  0  0  0  0  0  0  0
   -0.0007   -0.0005    0.0006 H   0  0  0  0  0  0  0  0  0  0  0  0
  1  6  2  0
  1  2  1  0
  2  3  2  0
  3  4  1  0
  4  5  2  0
  5  6  1  0
  4  7  1  0
  7  8  2  0
  7  9  1  0
  1 10  1  0
  2 11  1  0
  3 12  1  0
  5 13  1  0
  6 14  1  0
M  CHG  2   7   1   9  -1
M  END
>  <_TriposChargeType>  (260) 
USER_CHARGES

>  <solvdG>  (260) 
-4.12

>  <fdG>  (260) 
-3.46

>  <fname>  (260) 
mobley_4193752

>  <cname>  (260) 
 nitrobenzene

>  <dataset>  (260) 
FreeSolv

$$$$
4-methoxyaniline
     RDKit          3D

 18 18  0  0  0  0  0  0  0  0999 V2000
    0.8346   -0.3919   -2.1377 C   0  0  0  0  0  0  0  0  0  0  0  0
    1.9269   -1.0157   -1.4727 O   0  0  0  0  0  0  0  0  0  0  0  0
    1.8851   -1.0363   -0.1124 C   0  0  0  0  0  0  0  0  0  0  0  0
    2.9210   -1.6309    0.6081 C   0  0  0  0  0  0  0  0  0  0  0  0
    2.8783   -1.6520    2.0022 C   0  0  0  0  0  0  0  0  0  0  0  0
    1.7997   -1.0786    2.6757 C   0  0  0  0  0  0  0  0  0  0  0  0
    0.7638   -0.4841    1.9551 C   0  0  0  0  0  0  0  0  0  0  0  0
    0.8066   -0.4630    0.5610 C   0  0  0  0  0  0  0  0  0  0  0  0
    1.7564   -1.1001    4.0852 N   0  0  0  0  0  0  0  0  0  0  0  0
    0.9884   -0.4420   -3.2184 H   0  0  0  0  0  0  0  0  0  0  0  0
    0.7592    0.6503   -1.8175 H   0  0  0  0  0  0  0  0  0  0  0  0
   -0.0869   -0.9183   -1.8782 H   0  0  0  0  0  0  0  0  0  0  0  0
    3.7638   -2.0794    0.0892 H   0  0  0  0  0  0  0  0  0  0  0  0
    3.6908   -2.1179    2.5539 H   0  0  0  0  0  0  0  0  0  0  0  0
   -0.0815   -0.0345    2.4698 H   0  0  0  0  0  0  0  0  0  0  0  0
   -0.0032    0.0018    0.0052 H   0  0  0  0  0  0  0  0  0  0  0  0
    1.0017   -0.6444    4.5572 H   0  0  0  0  0  0  0  0  0  0  0  0
    2.5274   -1.4872    4.5909 H   0  0  0  0  0  0  0  0  0  0  0  0
  1  2  1  0
  2  3  1  0
  3  8  2  0
  3  4  1  0
  4  5  2  0
  5  6  1  0
  6  7  2  0
  7  8  1  0
  6  9  1  0
  1 10  1  0
  1 11  1  0
  1 12  1  0
  4 13  1  0
  5 14  1  0
  7 15  1  0
  8 16  1  0
  9 17  1  0
  9 18  1  0
M  END
>  <_TriposChargeType>  (261) 
USER_CHARGES

>  <solvdG>  (261) 
-7.48

>  <fdG>  (261) 
-7.02

>  <fname>  (261) 
mobley_4218209

>  <cname>  (261) 
 4-methoxyaniline

>  <dataset>  (261) 
FreeSolv

$$$$
1,2,3,4-tetrachlorobenzene
     RDKit          3D

 12 12  0  0  0  0  0  0  0  0999 V2000
    1.8851   -1.0363   -0.1124 C   0  0  0  0  0  0  0  0  0  0  0  0
    2.9210   -1.6309    0.6081 C   0  0  0  0  0  0  0  0  0  0  0  0
    2.8783   -1.6520    2.0022 C   0  0  0  0  0  0  0  0  0  0  0  0
    1.7997   -1.0786    2.6757 C   0  0  0  0  0  0  0  0  0  0  0  0
    0.7638   -0.4841    1.9551 C   0  0  0  0  0  0  0  0  0  0  0  0
    0.8066   -0.4630    0.5610 C   0  0  0  0  0  0  0  0  0  0  0  0
   -0.4385    0.2554   -0.4029 Cl  0  0  0  0  0  0  0  0  0  0  0  0
   -0.5863    0.2364    2.7836 Cl  0  0  0  0  0  0  0  0  0  0  0  0
    1.7591   -1.1115    4.4155 Cl  0  0  0  0  0  0  0  0  0  0  0  0
    4.2004   -2.4091    2.8236 Cl  0  0  0  0  0  0  0  0  0  0  0  0
    1.9348   -1.0287   -1.1984 H   0  0  0  0  0  0  0  0  0  0  0  0
    3.7536   -2.0728    0.0661 H   0  0  0  0  0  0  0  0  0  0  0  0
  1  6  2  0
  1  2  1  0
  2  3  2  0
  3  4  1  0
  4  5  2  0
  5  6  1  0
  6  7  1  0
  5  8  1  0
  4  9  1  0
  3 10  1  0
  1 11  1  0
  2 12  1  0
M  END
>  <_TriposChargeType>  (262) 
USER_CHARGES

>  <solvdG>  (262) 
-1.34

>  <fdG>  (262) 
-0.3

>  <fname>  (262) 
mobley_4219614

>  <cname>  (262) 
 1,2,3,4-tetrachlorobenzene

>  <dataset>  (262) 
FreeSolv

$$$$
isobutylbenzene
     RDKit          3D

 24 24  0  0  0  0  0  0  0  0999 V2000
    0.1917   -0.1014    0.9400 C   0  0  0  0  0  0  0  0  0  0  0  0
   -0.6434    0.6475    1.9816 C   0  0  0  0  0  0  0  0  0  0  0  0
   -0.0721    0.3940    3.3790 C   0  0  0  0  0  0  0  0  0  0  0  0
   -0.6900    2.1628    1.7040 C   0  0  0  0  0  0  0  0  0  0  0  0
   -1.2871    2.5197    0.3646 C   0  0  0  0  0  0  0  0  0  0  0  0
   -0.4666    2.6262   -0.7585 C   0  0  0  0  0  0  0  0  0  0  0  0
   -1.0182    2.9562   -1.9964 C   0  0  0  0  0  0  0  0  0  0  0  0
   -2.3903    3.1797   -2.1113 C   0  0  0  0  0  0  0  0  0  0  0  0
   -3.2107    3.0733   -0.9883 C   0  0  0  0  0  0  0  0  0  0  0  0
   -2.6591    2.7433    0.2497 C   0  0  0  0  0  0  0  0  0  0  0  0
   -0.1950    0.0620   -0.0717 H   0  0  0  0  0  0  0  0  0  0  0  0
    0.1965   -1.1786    1.1332 H   0  0  0  0  0  0  0  0  0  0  0  0
    1.2330    0.2378    0.9617 H   0  0  0  0  0  0  0  0  0  0  0  0
   -1.6618    0.2391    1.9586 H   0  0  0  0  0  0  0  0  0  0  0  0
   -0.6564    0.9220    4.1401 H   0  0  0  0  0  0  0  0  0  0  0  0
   -0.0812   -0.6735    3.6247 H   0  0  0  0  0  0  0  0  0  0  0  0
    0.9614    0.7496    3.4473 H   0  0  0  0  0  0  0  0  0  0  0  0
    0.3182    2.5893    1.7889 H   0  0  0  0  0  0  0  0  0  0  0  0
   -1.2868    2.6637    2.4783 H   0  0  0  0  0  0  0  0  0  0  0  0
    0.6034    2.4541   -0.6779 H   0  0  0  0  0  0  0  0  0  0  0  0
   -0.3794    3.0389   -2.8708 H   0  0  0  0  0  0  0  0  0  0  0  0
   -2.8200    3.4366   -3.0752 H   0  0  0  0  0  0  0  0  0  0  0  0
   -4.2789    3.2478   -1.0776 H   0  0  0  0  0  0  0  0  0  0  0  0
   -3.3065    2.6623    1.1189 H   0  0  0  0  0  0  0  0  0  0  0  0
  1  2  1  0
  2  3  1  0
  2  4  1  0
  4  5  1  0
  5 10  2  0
  5  6  1  0
  6  7  2  0
  7  8  1  0
  8  9  2  0
  9 10  1  0
  1 11  1  0
  1 12  1  0
  1 13  1  0
  2 14  1  0
  3 15  1  0
  3 16  1  0
  3 17  1  0
  4 18  1  0
  4 19  1  0
  6 20  1  0
  7 21  1  0
  8 22  1  0
  9 23  1  0
 10 24  1  0
M  END
>  <_TriposChargeType>  (263) 
USER_CHARGES

>  <solvdG>  (263) 
0.16

>  <fdG>  (263) 
-0.26

>  <fname>  (263) 
mobley_4252724

>  <cname>  (263) 
 isobutylbenzene

>  <dataset>  (263) 
FreeSolv

$$$$
2-methylpyridine
     RDKit          3D

 14 14  0  0  0  0  0  0  0  0999 V2000
    0.9810   -2.1301    4.7574 C   0  0  0  0  0  0  0  0  0  0  0  0
    0.7299   -1.5161    3.4206 C   0  0  0  0  0  0  0  0  0  0  0  0
    1.6520   -0.6227    2.8997 C   0  0  0  0  0  0  0  0  0  0  0  0
    1.3879   -0.0684    1.6522 C   0  0  0  0  0  0  0  0  0  0  0  0
    0.2265   -0.4197    0.9733 C   0  0  0  0  0  0  0  0  0  0  0  0
   -0.6317   -1.3224    1.5803 C   0  0  0  0  0  0  0  0  0  0  0  0
   -0.4092   -1.8816    2.7908 N   0  0  0  0  0  0  0  0  0  0  0  0
    1.5430   -3.0619    4.6418 H   0  0  0  0  0  0  0  0  0  0  0  0
    1.5511   -1.4501    5.3991 H   0  0  0  0  0  0  0  0  0  0  0  0
    0.0385   -2.3464    5.2715 H   0  0  0  0  0  0  0  0  0  0  0  0
    2.5545   -0.3569    3.4396 H   0  0  0  0  0  0  0  0  0  0  0  0
    2.0859    0.6359    1.2097 H   0  0  0  0  0  0  0  0  0  0  0  0
    0.0002   -0.0003   -0.0003 H   0  0  0  0  0  0  0  0  0  0  0  0
   -1.5509   -1.6291    1.0922 H   0  0  0  0  0  0  0  0  0  0  0  0
  1  2  1  0
  2  7  2  0
  2  3  1  0
  3  4  2  0
  4  5  1  0
  5  6  2  0
  6  7  1  0
  1  8  1  0
  1  9  1  0
  1 10  1  0
  3 11  1  0
  4 12  1  0
  5 13  1  0
  6 14  1  0
M  END
>  <_TriposChargeType>  (264) 
USER_CHARGES

>  <solvdG>  (264) 
-4.63

>  <fdG>  (264) 
-3.5

>  <fname>  (264) 
mobley_4287564

>  <cname>  (264) 
 2-methylpyridine

>  <dataset>  (264) 
FreeSolv

$$$$
2-chloropyridine
     RDKit          3D

 11 11  0  0  0  0  0  0  0  0999 V2000
    1.3879   -0.0684    1.6522 C   0  0  0  0  0  0  0  0  0  0  0  0
    0.2265   -0.4197    0.9733 C   0  0  0  0  0  0  0  0  0  0  0  0
   -0.6317   -1.3224    1.5803 C   0  0  0  0  0  0  0  0  0  0  0  0
   -0.4092   -1.8816    2.7908 N   0  0  0  0  0  0  0  0  0  0  0  0
    0.7299   -1.5161    3.4206 C   0  0  0  0  0  0  0  0  0  0  0  0
    1.6520   -0.6227    2.8997 C   0  0  0  0  0  0  0  0  0  0  0  0
    0.9732   -2.2488    4.9527 Cl  0  0  0  0  0  0  0  0  0  0  0  0
    2.0857    0.6366    1.2103 H   0  0  0  0  0  0  0  0  0  0  0  0
   -0.0002    0.0006    0.0001 H   0  0  0  0  0  0  0  0  0  0  0  0
   -1.5510   -1.6287    1.0921 H   0  0  0  0  0  0  0  0  0  0  0  0
    2.5552   -0.3545    3.4378 H   0  0  0  0  0  0  0  0  0  0  0  0
  1  6  2  0
  1  2  1  0
  2  3  2  0
  3  4  1  0
  4  5  2  0
  5  6  1  0
  5  7  1  0
  1  8  1  0
  2  9  1  0
  3 10  1  0
  6 11  1  0
M  END
>  <_TriposChargeType>  (265) 
USER_CHARGES

>  <solvdG>  (265) 
-4.39

>  <fdG>  (265) 
-3.87

>  <fname>  (265) 
mobley_4291494

>  <cname>  (265) 
 2-chloropyridine

>  <dataset>  (265) 
FreeSolv

$$$$
pent-1-yne
     RDKit          3D

 13 12  0  0  0  0  0  0  0  0999 V2000
   -1.1353    1.3803   -0.7537 C   0  0  0  0  0  0  0  0  0  0  0  0
    0.1020    0.6784   -0.2171 C   0  0  0  0  0  0  0  0  0  0  0  0
   -0.2097   -0.7519    0.2191 C   0  0  0  0  0  0  0  0  0  0  0  0
    0.9911   -1.4222    0.7361 C   0  0  0  0  0  0  0  0  0  0  0  0
    1.9705   -1.9727    1.1593 C   0  0  0  0  0  0  0  0  0  0  0  0
   -0.9023    2.4040   -1.0636 H   0  0  0  0  0  0  0  0  0  0  0  0
   -1.5283    0.8434   -1.6228 H   0  0  0  0  0  0  0  0  0  0  0  0
   -1.9233    1.4213    0.0050 H   0  0  0  0  0  0  0  0  0  0  0  0
    0.8782    0.6746   -0.9923 H   0  0  0  0  0  0  0  0  0  0  0  0
    0.5026    1.2509    0.6287 H   0  0  0  0  0  0  0  0  0  0  0  0
   -0.6089   -1.3205   -0.6289 H   0  0  0  0  0  0  0  0  0  0  0  0
   -0.9856   -0.7433    0.9937 H   0  0  0  0  0  0  0  0  0  0  0  0
    2.8393   -2.4606    1.5347 H   0  0  0  0  0  0  0  0  0  0  0  0
  1  2  1  0
  2  3  1  0
  3  4  1  0
  4  5  3  0
  1  6  1  0
  1  7  1  0
  1  8  1  0
  2  9  1  0
  2 10  1  0
  3 11  1  0
  3 12  1  0
  5 13  1  0
M  END
>  <_TriposChargeType>  (266) 
USER_CHARGES

>  <solvdG>  (266) 
0.01

>  <fdG>  (266) 
0.47

>  <fname>  (266) 
mobley_430089

>  <cname>  (266) 
 pent-1-yne

>  <dataset>  (266) 
FreeSolv

$$$$
propanenitrile
     RDKit          3D

  9  8  0  0  0  0  0  0  0  0999 V2000
    0.6419   -0.7484    0.4847 C   0  0  0  0  0  0  0  0  0  0  0  0
    1.1888   -0.1853    1.7565 C   0  0  0  0  0  0  0  0  0  0  0  0
    2.0234   -1.2467    2.3255 C   0  0  0  0  0  0  0  0  0  0  0  0
    2.6856   -2.0831    2.7823 N   0  0  0  0  0  0  0  0  0  0  0  0
   -0.0054   -0.0292   -0.0308 H   0  0  0  0  0  0  0  0  0  0  0  0
    1.4707   -0.9824   -0.1975 H   0  0  0  0  0  0  0  0  0  0  0  0
    0.0945   -1.6824    0.6582 H   0  0  0  0  0  0  0  0  0  0  0  0
    0.3742    0.0817    2.4366 H   0  0  0  0  0  0  0  0  0  0  0  0
    1.7795    0.7130    1.5529 H   0  0  0  0  0  0  0  0  0  0  0  0
  1  2  1  0
  2  3  1  0
  3  4  3  0
  1  5  1  0
  1  6  1  0
  1  7  1  0
  2  8  1  0
  2  9  1  0
M  END
>  <_TriposChargeType>  (267) 
USER_CHARGES

>  <solvdG>  (267) 
-3.84

>  <fdG>  (267) 
-2.49

>  <fname>  (267) 
mobley_4305650

>  <cname>  (267) 
 propanenitrile

>  <dataset>  (267) 
FreeSolv

$$$$
6-chloro-1H-pyrimidine-2,4-dione
     RDKit          3D

 12 12  0  0  0  0  0  0  0  0999 V2000
   -0.7215    0.6822    0.9951 C   0  0  0  0  0  0  0  0  0  0  0  0
   -0.7260   -0.8010    1.0047 C   0  0  0  0  0  0  0  0  0  0  0  0
   -1.3471   -1.4209    1.8632 O   0  0  0  0  0  0  0  0  0  0  0  0
    0.0109   -1.3958   -0.0117 N   0  0  0  0  0  0  0  0  0  0  0  0
    0.7315   -0.7289   -1.0081 C   0  0  0  0  0  0  0  0  0  0  0  0
    1.3652   -1.3220   -1.8814 O   0  0  0  0  0  0  0  0  0  0  0  0
    0.6703    0.6550   -0.9274 N   0  0  0  0  0  0  0  0  0  0  0  0
   -0.0326    1.3123    0.0418 C   0  0  0  0  0  0  0  0  0  0  0  0
    0.0493    3.0191   -0.0762 Cl  0  0  0  0  0  0  0  0  0  0  0  0
   -1.2802    1.2025    1.7641 H   0  0  0  0  0  0  0  0  0  0  0  0
    0.0282   -2.4114   -0.0334 H   0  0  0  0  0  0  0  0  0  0  0  0
    1.1706    1.2037   -1.6201 H   0  0  0  0  0  0  0  0  0  0  0  0
  1  8  2  0
  1  2  1  0
  2  3  2  0
  2  4  1  0
  4  5  1  0
  5  6  2  0
  5  7  1  0
  7  8  1  0
  8  9  1  0
  1 10  1  0
  4 11  1  0
  7 12  1  0
M  END
>  <_TriposChargeType>  (268) 
USER_CHARGES

>  <solvdG>  (268) 
-15.83

>  <fdG>  (268) 
-15.13

>  <fname>  (268) 
mobley_4338603

>  <cname>  (268) 
 6-chlorouracil

>  <dataset>  (268) 
FreeSolv

$$$$
iodomethane
     RDKit          3D

  5  4  0  0  0  0  0  0  0  0999 V2000
    0.1099   -0.0900   -0.1201 C   0  0  0  0  0  0  0  0  0  0  0  0
   -1.1366    0.9313    1.2449 I   0  0  0  0  0  0  0  0  0  0  0  0
    0.7691    0.6051   -0.6488 H   0  0  0  0  0  0  0  0  0  0  0  0
    0.7395   -0.8226    0.3935 H   0  0  0  0  0  0  0  0  0  0  0  0
   -0.4820   -0.6237   -0.8694 H   0  0  0  0  0  0  0  0  0  0  0  0
  1  2  1  0
  1  3  1  0
  1  4  1  0
  1  5  1  0
M  END
>  <_TriposChargeType>  (269) 
USER_CHARGES

>  <solvdG>  (269) 
-0.89

>  <fdG>  (269) 
-0.64

>  <fname>  (269) 
mobley_4364398

>  <cname>  (269) 
 iodomethane

>  <dataset>  (269) 
FreeSolv

$$$$
1-amino-4-hydroxy-anthracene-9,10-dione
     RDKit          3D

 27 29  0  0  0  0  0  0  0  0999 V2000
    1.2904   -1.6865   -0.3516 C   0  0  0  0  0  0  0  0  0  0  0  0
    0.9563   -0.4630    0.2256 C   0  0  0  0  0  0  0  0  0  0  0  0
    1.8484    0.1684    1.0928 C   0  0  0  0  0  0  0  0  0  0  0  0
    3.0812   -0.4277    1.3842 C   0  0  0  0  0  0  0  0  0  0  0  0
    3.4160   -1.6538    0.8057 C   0  0  0  0  0  0  0  0  0  0  0  0
    2.5179   -2.2839   -0.0640 C   0  0  0  0  0  0  0  0  0  0  0  0
    4.7134   -2.2938    1.1043 C   0  0  0  0  0  0  0  0  0  0  0  0
    4.9722   -3.3687    0.5779 O   0  0  0  0  0  0  0  0  0  0  0  0
    5.6516   -1.6180    2.0237 C   0  0  0  0  0  0  0  0  0  0  0  0
    6.8845   -2.2140    2.3149 C   0  0  0  0  0  0  0  0  0  0  0  0
    7.7766   -1.5826    3.1822 C   0  0  0  0  0  0  0  0  0  0  0  0
    7.4425   -0.3591    3.7594 C   0  0  0  0  0  0  0  0  0  0  0  0
    6.2150    0.2382    3.4720 C   0  0  0  0  0  0  0  0  0  0  0  0
    5.3168   -0.3919    2.6022 C   0  0  0  0  0  0  0  0  0  0  0  0
    4.0194    0.2481    2.3036 C   0  0  0  0  0  0  0  0  0  0  0  0
    3.7024    1.3229    2.7975 O   0  0  0  0  0  0  0  0  0  0  0  0
    5.9497    1.4347    4.0695 O   0  0  0  0  0  0  0  0  0  0  0  0
    7.2931   -3.4522    1.7683 N   0  0  0  0  0  0  0  0  0  0  0  0
    0.5943   -2.1752   -1.0273 H   0  0  0  0  0  0  0  0  0  0  0  0
    0.0003    0.0004   -0.0008 H   0  0  0  0  0  0  0  0  0  0  0  0
    1.5631    1.1221    1.5285 H   0  0  0  0  0  0  0  0  0  0  0  0
    2.7524   -3.2380   -0.5285 H   0  0  0  0  0  0  0  0  0  0  0  0
    8.7374   -2.0343    3.4168 H   0  0  0  0  0  0  0  0  0  0  0  0
    8.1448    0.1239    4.4339 H   0  0  0  0  0  0  0  0  0  0  0  0
    6.6941    1.6997    4.6315 H   0  0  0  0  0  0  0  0  0  0  0  0
    6.6612   -3.9547    1.1813 H   0  0  0  0  0  0  0  0  0  0  0  0
    8.1657   -3.8436    2.0548 H   0  0  0  0  0  0  0  0  0  0  0  0
  1  6  2  0
  1  2  1  0
  2  3  2  0
  3  4  1  0
  4 15  1  0
  4  5  2  0
  5  6  1  0
  5  7  1  0
  7  8  2  0
  7  9  1  0
  9 14  2  0
  9 10  1  0
 10 11  2  0
 11 12  1  0
 12 13  2  0
 13 14  1  0
 14 15  1  0
 15 16  2  0
 13 17  1  0
 10 18  1  0
  1 19  1  0
  2 20  1  0
  3 21  1  0
  6 22  1  0
 11 23  1  0
 12 24  1  0
 17 25  1  0
 18 26  1  0
 18 27  1  0
M  END
>  <_TriposChargeType>  (270) 
USER_CHARGES

>  <solvdG>  (270) 
-9.53

>  <fdG>  (270) 
-10.98

>  <fname>  (270) 
mobley_4371692

>  <cname>  (270) 
 1-amino-4-hydroxy-9,10-anthracenedione

>  <dataset>  (270) 
FreeSolv

$$$$
nonane
     RDKit          3D

 29 28  0  0  0  0  0  0  0  0999 V2000
    0.5002   -2.0147   -1.2894 C   0  0  0  0  0  0  0  0  0  0  0  0
    0.8190   -1.9283    0.1951 C   0  0  0  0  0  0  0  0  0  0  0  0
    2.0163   -2.7841    0.6139 C   0  0  0  0  0  0  0  0  0  0  0  0
    2.3336   -2.6942    2.1083 C   0  0  0  0  0  0  0  0  0  0  0  0
    3.5368   -3.5671    2.4727 C   0  0  0  0  0  0  0  0  0  0  0  0
    3.8560   -3.4790    3.9661 C   0  0  0  0  0  0  0  0  0  0  0  0
    5.0584   -4.3512    4.3307 C   0  0  0  0  0  0  0  0  0  0  0  0
    5.3767   -4.2627    5.8230 C   0  0  0  0  0  0  0  0  0  0  0  0
    6.5714   -5.1281    6.1905 C   0  0  0  0  0  0  0  0  0  0  0  0
   -0.3609   -1.3885   -1.5440 H   0  0  0  0  0  0  0  0  0  0  0  0
    1.3563   -1.6687   -1.8777 H   0  0  0  0  0  0  0  0  0  0  0  0
    0.2839   -3.0427   -1.5943 H   0  0  0  0  0  0  0  0  0  0  0  0
    0.9934   -0.8817    0.4704 H   0  0  0  0  0  0  0  0  0  0  0  0
   -0.0599   -2.2622    0.7596 H   0  0  0  0  0  0  0  0  0  0  0  0
    1.7979   -3.8277    0.3556 H   0  0  0  0  0  0  0  0  0  0  0  0
    2.8981   -2.4925    0.0302 H   0  0  0  0  0  0  0  0  0  0  0  0
    1.4598   -3.0124    2.6897 H   0  0  0  0  0  0  0  0  0  0  0  0
    2.5480   -1.6558    2.3847 H   0  0  0  0  0  0  0  0  0  0  0  0
    3.3298   -4.6098    2.2026 H   0  0  0  0  0  0  0  0  0  0  0  0
    4.4104   -3.2491    1.8906 H   0  0  0  0  0  0  0  0  0  0  0  0
    4.0627   -2.4363    4.2366 H   0  0  0  0  0  0  0  0  0  0  0  0
    2.9819   -3.7965    4.5478 H   0  0  0  0  0  0  0  0  0  0  0  0
    5.9326   -4.0342    3.7492 H   0  0  0  0  0  0  0  0  0  0  0  0
    4.8515   -5.3939    4.0603 H   0  0  0  0  0  0  0  0  0  0  0  0
    5.5887   -3.2226    6.0973 H   0  0  0  0  0  0  0  0  0  0  0  0
    4.5071   -4.5823    6.4091 H   0  0  0  0  0  0  0  0  0  0  0  0
    6.7808   -5.0494    7.2619 H   0  0  0  0  0  0  0  0  0  0  0  0
    7.4667   -4.8129    5.6453 H   0  0  0  0  0  0  0  0  0  0  0  0
    6.3802   -6.1805    5.9582 H   0  0  0  0  0  0  0  0  0  0  0  0
  1  2  1  0
  2  3  1  0
  3  4  1  0
  4  5  1  0
  5  6  1  0
  6  7  1  0
  7  8  1  0
  8  9  1  0
  1 10  1  0
  1 11  1  0
  1 12  1  0
  2 13  1  0
  2 14  1  0
  3 15  1  0
  3 16  1  0
  4 17  1  0
  4 18  1  0
  5 19  1  0
  5 20  1  0
  6 21  1  0
  6 22  1  0
  7 23  1  0
  7 24  1  0
  8 25  1  0
  8 26  1  0
  9 27  1  0
  9 28  1  0
  9 29  1  0
M  END
>  <_TriposChargeType>  (271) 
USER_CHARGES

>  <solvdG>  (271) 
3.13

>  <fdG>  (271) 
3.22

>  <fname>  (271) 
mobley_4375719

>  <cname>  (271) 
 nonane

>  <dataset>  (271) 
FreeSolv

$$$$
4-chloro-3-methyl-phenol
     RDKit          3D

 16 16  0  0  0  0  0  0  0  0999 V2000
    1.9683   -1.0326   -1.6047 C   0  0  0  0  0  0  0  0  0  0  0  0
    1.8851   -1.0363   -0.1124 C   0  0  0  0  0  0  0  0  0  0  0  0
    2.9210   -1.6309    0.6081 C   0  0  0  0  0  0  0  0  0  0  0  0
    2.8783   -1.6520    2.0022 C   0  0  0  0  0  0  0  0  0  0  0  0
    1.7997   -1.0786    2.6757 C   0  0  0  0  0  0  0  0  0  0  0  0
    0.7638   -0.4841    1.9551 C   0  0  0  0  0  0  0  0  0  0  0  0
    0.8066   -0.4630    0.5610 C   0  0  0  0  0  0  0  0  0  0  0  0
   -0.4934    0.2821   -0.2958 Cl  0  0  0  0  0  0  0  0  0  0  0  0
    3.8889   -2.2320    2.7059 O   0  0  0  0  0  0  0  0  0  0  0  0
    2.4861   -0.1320   -1.9485 H   0  0  0  0  0  0  0  0  0  0  0  0
    2.5092   -1.9125   -1.9682 H   0  0  0  0  0  0  0  0  0  0  0  0
    0.9690   -1.0592   -2.0519 H   0  0  0  0  0  0  0  0  0  0  0  0
    3.7645   -2.0782    0.0872 H   0  0  0  0  0  0  0  0  0  0  0  0
    1.7606   -1.0923    3.7617 H   0  0  0  0  0  0  0  0  0  0  0  0
   -0.0697   -0.0419    2.4950 H   0  0  0  0  0  0  0  0  0  0  0  0
    3.7157   -2.1670    3.6585 H   0  0  0  0  0  0  0  0  0  0  0  0
  1  2  1  0
  2  7  2  0
  2  3  1  0
  3  4  2  0
  4  5  1  0
  5  6  2  0
  6  7  1  0
  7  8  1  0
  4  9  1  0
  1 10  1  0
  1 11  1  0
  1 12  1  0
  3 13  1  0
  5 14  1  0
  6 15  1  0
  9 16  1  0
M  END
>  <_TriposChargeType>  (272) 
USER_CHARGES

>  <solvdG>  (272) 
-6.79

>  <fdG>  (272) 
-5.14

>  <fname>  (272) 
mobley_4395315

>  <cname>  (272) 
 4-chloro-3-methyl-phenol

>  <dataset>  (272) 
FreeSolv

$$$$
chloromethane
     RDKit          3D

  5  4  0  0  0  0  0  0  0  0999 V2000
    0.0830   -0.0659   -0.0904 C   0  0  0  0  0  0  0  0  0  0  0  0
   -0.9700    0.7711    1.0556 Cl  0  0  0  0  0  0  0  0  0  0  0  0
    0.7012    0.6694   -0.6100 H   0  0  0  0  0  0  0  0  0  0  0  0
    0.7190   -0.7662    0.4554 H   0  0  0  0  0  0  0  0  0  0  0  0
   -0.5332   -0.6084   -0.8107 H   0  0  0  0  0  0  0  0  0  0  0  0
  1  2  1  0
  1  3  1  0
  1  4  1  0
  1  5  1  0
M  END
>  <_TriposChargeType>  (273) 
USER_CHARGES

>  <solvdG>  (273) 
-0.55

>  <fdG>  (273) 
0.76

>  <fname>  (273) 
mobley_4434915

>  <cname>  (273) 
 chloromethane

>  <dataset>  (273) 
FreeSolv

$$$$
1-acetoxyethyl acetate
     RDKit          3D

 20 19  0  0  0  0  0  0  0  0999 V2000
    1.7138   -3.2985   -2.9814 C   0  0  0  0  0  0  0  0  0  0  0  0
    1.6575   -3.3148   -1.4604 C   0  0  0  0  0  0  0  0  0  0  0  0
    1.3892   -1.9629   -1.0325 O   0  0  0  0  0  0  0  0  0  0  0  0
    1.2992   -1.7612    0.3129 C   0  0  0  0  0  0  0  0  0  0  0  0
    1.4232   -2.6102    1.1851 O   0  0  0  0  0  0  0  0  0  0  0  0
    1.0171   -0.3146    0.5840 C   0  0  0  0  0  0  0  0  0  0  0  0
    2.9236   -3.7759   -0.9490 O   0  0  0  0  0  0  0  0  0  0  0  0
    3.1458   -5.1207   -0.9507 C   0  0  0  0  0  0  0  0  0  0  0  0
    2.3763   -5.9865   -1.3444 O   0  0  0  0  0  0  0  0  0  0  0  0
    4.5063   -5.4017   -0.3887 C   0  0  0  0  0  0  0  0  0  0  0  0
    1.9155   -4.2997   -3.3752 H   0  0  0  0  0  0  0  0  0  0  0  0
    2.4814   -2.6089   -3.3453 H   0  0  0  0  0  0  0  0  0  0  0  0
    0.7547   -2.9696   -3.3973 H   0  0  0  0  0  0  0  0  0  0  0  0
    0.8356   -3.9590   -1.1225 H   0  0  0  0  0  0  0  0  0  0  0  0
   -0.0625   -0.1462    0.6119 H   0  0  0  0  0  0  0  0  0  0  0  0
    1.4782   -0.0179    1.5295 H   0  0  0  0  0  0  0  0  0  0  0  0
    1.4433    0.2944   -0.2184 H   0  0  0  0  0  0  0  0  0  0  0  0
    4.4393   -5.5390    0.6933 H   0  0  0  0  0  0  0  0  0  0  0  0
    4.9282   -6.2902   -0.8651 H   0  0  0  0  0  0  0  0  0  0  0  0
    5.1650   -4.5525   -0.5921 H   0  0  0  0  0  0  0  0  0  0  0  0
  1  2  1  0
  2  3  1  0
  3  4  1  0
  4  5  2  0
  4  6  1  0
  2  7  1  0
  7  8  1  0
  8  9  2  0
  8 10  1  0
  1 11  1  0
  1 12  1  0
  1 13  1  0
  2 14  1  0
  6 15  1  0
  6 16  1  0
  6 17  1  0
 10 18  1  0
 10 19  1  0
 10 20  1  0
M  END
>  <_TriposChargeType>  (274) 
USER_CHARGES

>  <solvdG>  (274) 
-4.97

>  <fdG>  (274) 
-8.01

>  <fname>  (274) 
mobley_4463913

>  <cname>  (274) 
 1-acetoxyethyl acetate

>  <dataset>  (274) 
FreeSolv

$$$$
(Z)-1,2-dichloroethylene
     RDKit          3D

  6  5  0  0  0  0  0  0  0  0999 V2000
   -0.6314    0.0855   -0.1906 C   0  0  0  0  0  0  0  0  0  0  0  0
    0.6316   -0.0857    0.1906 C   0  0  0  0  0  0  0  0  0  0  0  0
    1.7840   -0.9099   -0.7716 Cl  0  0  0  0  0  0  0  0  0  0  0  0
   -1.2353   -0.5005   -1.6824 Cl  0  0  0  0  0  0  0  0  0  0  0  0
   -1.3859    0.6000    0.3893 H   0  0  0  0  0  0  0  0  0  0  0  0
    1.0478    0.2702    1.1237 H   0  0  0  0  0  0  0  0  0  0  0  0
  1  2  2  0
  2  3  1  0
  1  4  1  0
  1  5  1  0
  2  6  1  0
M  END
>  <_TriposChargeType>  (275) 
USER_CHARGES

>  <solvdG>  (275) 
-1.17

>  <fdG>  (275) 
1.16

>  <fname>  (275) 
mobley_4465023

>  <cname>  (275) 
 (Z)-1,2-dichloroethylene

>  <dataset>  (275) 
FreeSolv

$$$$
1-phenylvinylbenzene
     RDKit          3D

 26 27  0  0  0  0  0  0  0  0999 V2000
    2.0250   -2.1890   -2.2174 C   0  0  0  0  0  0  0  0  0  0  0  0
    1.9297   -1.0142   -1.5660 C   0  0  0  0  0  0  0  0  0  0  0  0
    1.8952    0.2076   -2.3543 C   0  0  0  0  0  0  0  0  0  0  0  0
    0.7944    1.0603   -2.2716 C   0  0  0  0  0  0  0  0  0  0  0  0
    0.7614    2.2320   -3.0275 C   0  0  0  0  0  0  0  0  0  0  0  0
    1.8293    2.5511   -3.8663 C   0  0  0  0  0  0  0  0  0  0  0  0
    2.9301    1.6984   -3.9491 C   0  0  0  0  0  0  0  0  0  0  0  0
    2.9630    0.5267   -3.1931 C   0  0  0  0  0  0  0  0  0  0  0  0
    1.8649   -1.0394   -0.0827 C   0  0  0  0  0  0  0  0  0  0  0  0
    2.8436   -0.3894    0.6693 C   0  0  0  0  0  0  0  0  0  0  0  0
    2.7827   -0.4130    2.0626 C   0  0  0  0  0  0  0  0  0  0  0  0
    1.7432   -1.0866    2.7040 C   0  0  0  0  0  0  0  0  0  0  0  0
    0.7646   -1.7366    1.9520 C   0  0  0  0  0  0  0  0  0  0  0  0
    0.8254   -1.7130    0.5586 C   0  0  0  0  0  0  0  0  0  0  0  0
    2.0556   -3.1394   -1.6924 H   0  0  0  0  0  0  0  0  0  0  0  0
    2.0756   -2.2457   -3.3011 H   0  0  0  0  0  0  0  0  0  0  0  0
   -0.0457    0.8252   -1.6223 H   0  0  0  0  0  0  0  0  0  0  0  0
   -0.0957    2.8960   -2.9633 H   0  0  0  0  0  0  0  0  0  0  0  0
    1.8036    3.4635   -4.4550 H   0  0  0  0  0  0  0  0  0  0  0  0
    3.7615    1.9471   -4.6021 H   0  0  0  0  0  0  0  0  0  0  0  0
    3.8280   -0.1279   -3.2685 H   0  0  0  0  0  0  0  0  0  0  0  0
    3.6601    0.1399    0.1839 H   0  0  0  0  0  0  0  0  0  0  0  0
    3.5448    0.0928    2.6483 H   0  0  0  0  0  0  0  0  0  0  0  0
    1.6958   -1.1051    3.7889 H   0  0  0  0  0  0  0  0  0  0  0  0
   -0.0449   -2.2609    2.4514 H   0  0  0  0  0  0  0  0  0  0  0  0
    0.0552   -2.2243   -0.0138 H   0  0  0  0  0  0  0  0  0  0  0  0
  1  2  2  3
  2  3  1  0
  3  8  1  0
  3  4  2  0
  4  5  1  0
  5  6  2  0
  6  7  1  0
  7  8  2  0
  2  9  1  0
  9 14  1  0
  9 10  2  0
 10 11  1  0
 11 12  2  0
 12 13  1  0
 13 14  2  0
  1 15  1  0
  1 16  1  0
  4 17  1  0
  5 18  1  0
  6 19  1  0
  7 20  1  0
  8 21  1  0
 10 22  1  0
 11 23  1  0
 12 24  1  0
 13 25  1  0
 14 26  1  0
M  END
>  <_TriposChargeType>  (276) 
USER_CHARGES

>  <solvdG>  (276) 
-2.78

>  <fdG>  (276) 
-2.47

>  <fname>  (276) 
mobley_4479135

>  <cname>  (276) 
 1,1-diphenylethene

>  <dataset>  (276) 
FreeSolv

$$$$
fluorobenzene
     RDKit          3D

 12 12  0  0  0  0  0  0  0  0999 V2000
    1.8851   -1.0363   -0.1124 C   0  0  0  0  0  0  0  0  0  0  0  0
    2.9210   -1.6309    0.6081 C   0  0  0  0  0  0  0  0  0  0  0  0
    2.8783   -1.6520    2.0022 C   0  0  0  0  0  0  0  0  0  0  0  0
    1.7997   -1.0786    2.6757 C   0  0  0  0  0  0  0  0  0  0  0  0
    0.7638   -0.4841    1.9551 C   0  0  0  0  0  0  0  0  0  0  0  0
    0.8066   -0.4630    0.5610 C   0  0  0  0  0  0  0  0  0  0  0  0
    1.7584   -1.0989    4.0143 F   0  0  0  0  0  0  0  0  0  0  0  0
    1.9187   -1.0200   -1.1979 H   0  0  0  0  0  0  0  0  0  0  0  0
    3.7609   -2.0773    0.0839 H   0  0  0  0  0  0  0  0  0  0  0  0
    3.6847   -2.1150    2.5631 H   0  0  0  0  0  0  0  0  0  0  0  0
   -0.0758   -0.0378    2.4796 H   0  0  0  0  0  0  0  0  0  0  0  0
   -0.0000   -0.0000    0.0000 H   0  0  0  0  0  0  0  0  0  0  0  0
  1  6  2  0
  1  2  1  0
  2  3  2  0
  3  4  1  0
  4  5  2  0
  5  6  1  0
  4  7  1  0
  1  8  1  0
  2  9  1  0
  3 10  1  0
  5 11  1  0
  6 12  1  0
M  END
>  <_TriposChargeType>  (277) 
USER_CHARGES

>  <solvdG>  (277) 
-0.8

>  <fdG>  (277) 
-0.04

>  <fname>  (277) 
mobley_4483973

>  <cname>  (277) 
 fluorobenzene

>  <dataset>  (277) 
FreeSolv

$$$$
1-bromo-4-methyl-benzene
     RDKit          3D

 15 15  0  0  0  0  0  0  0  0999 V2000
    1.9306   -1.0137   -1.6031 C   0  0  0  0  0  0  0  0  0  0  0  0
    1.8851   -1.0363   -0.1124 C   0  0  0  0  0  0  0  0  0  0  0  0
    2.9210   -1.6309    0.6081 C   0  0  0  0  0  0  0  0  0  0  0  0
    2.8783   -1.6520    2.0022 C   0  0  0  0  0  0  0  0  0  0  0  0
    1.7997   -1.0786    2.6757 C   0  0  0  0  0  0  0  0  0  0  0  0
    0.7638   -0.4841    1.9551 C   0  0  0  0  0  0  0  0  0  0  0  0
    0.8066   -0.4630    0.5610 C   0  0  0  0  0  0  0  0  0  0  0  0
    1.7401   -1.1091    4.5645 Br  0  0  0  0  0  0  0  0  0  0  0  0
    2.4384   -0.1080   -1.9485 H   0  0  0  0  0  0  0  0  0  0  0  0
    2.4633   -1.8882   -1.9913 H   0  0  0  0  0  0  0  0  0  0  0  0
    0.9204   -1.0363   -2.0253 H   0  0  0  0  0  0  0  0  0  0  0  0
    3.7659   -2.0792    0.0922 H   0  0  0  0  0  0  0  0  0  0  0  0
    3.6936   -2.1192    2.5490 H   0  0  0  0  0  0  0  0  0  0  0  0
   -0.0841   -0.0328    2.4641 H   0  0  0  0  0  0  0  0  0  0  0  0
   -0.0043    0.0032    0.0076 H   0  0  0  0  0  0  0  0  0  0  0  0
  1  2  1  0
  2  7  2  0
  2  3  1  0
  3  4  2  0
  4  5  1  0
  5  6  2  0
  6  7  1  0
  5  8  1  0
  1  9  1  0
  1 10  1  0
  1 11  1  0
  3 12  1  0
  4 13  1  0
  6 14  1  0
  7 15  1  0
M  END
>  <_TriposChargeType>  (278) 
USER_CHARGES

>  <solvdG>  (278) 
-1.39

>  <fdG>  (278) 
-0.89

>  <fname>  (278) 
mobley_4494568

>  <cname>  (278) 
 1-bromo-4-methyl-benzene

>  <dataset>  (278) 
FreeSolv

$$$$
(2R)-2-bromo-2-chloro-1,1,1-trifluoro-ethane
     RDKit          3D

  8  7  0  0  0  0  0  0  0  0999 V2000
    0.2378    0.2165    0.6572 C   0  0  2  0  0  0  0  0  0  0  0  0
    1.2961    0.0701    0.8886 H   0  0  0  0  0  0  0  0  0  0  0  0
   -0.1048   -0.3253   -0.7101 C   0  0  0  0  0  0  0  0  0  0  0  0
    0.1556   -1.6512   -0.7803 F   0  0  0  0  0  0  0  0  0  0  0  0
   -1.4071   -0.1477   -1.0191 F   0  0  0  0  0  0  0  0  0  0  0  0
    0.6334    0.2733   -1.6719 F   0  0  0  0  0  0  0  0  0  0  0  0
   -0.7279   -0.5711    1.9188 Cl  0  0  0  0  0  0  0  0  0  0  0  0
   -0.0830    2.1358    0.7165 Br  0  0  0  0  0  0  0  0  0  0  0  0
  1  2  1  1
  1  3  1  0
  3  4  1  0
  3  5  1  0
  3  6  1  0
  1  7  1  0
  1  8  1  0
M  END
>  <_TriposChargeType>  (279) 
USER_CHARGES

>  <solvdG>  (279) 
-0.11

>  <fdG>  (279) 
0.21

>  <fname>  (279) 
mobley_4506634

>  <cname>  (279) 
 2-bromo-2-chloro-1,1,1-trifluoro-ethane

>  <dataset>  (279) 
FreeSolv

$$$$
1,4-dichlorobenzene
     RDKit          3D

 12 12  0  0  0  0  0  0  0  0999 V2000
    1.8851   -1.0363   -0.1124 C   0  0  0  0  0  0  0  0  0  0  0  0
    2.9210   -1.6309    0.6081 C   0  0  0  0  0  0  0  0  0  0  0  0
    2.8783   -1.6520    2.0022 C   0  0  0  0  0  0  0  0  0  0  0  0
    1.7997   -1.0786    2.6757 C   0  0  0  0  0  0  0  0  0  0  0  0
    0.7638   -0.4841    1.9551 C   0  0  0  0  0  0  0  0  0  0  0  0
    0.8066   -0.4630    0.5610 C   0  0  0  0  0  0  0  0  0  0  0  0
   -0.4710    0.2709   -0.3280 Cl  0  0  0  0  0  0  0  0  0  0  0  0
    4.1562   -2.3855    2.8911 Cl  0  0  0  0  0  0  0  0  0  0  0  0
    1.9312   -1.0272   -1.1983 H   0  0  0  0  0  0  0  0  0  0  0  0
    3.7554   -2.0737    0.0706 H   0  0  0  0  0  0  0  0  0  0  0  0
    1.7535   -1.0881    3.7615 H   0  0  0  0  0  0  0  0  0  0  0  0
   -0.0705   -0.0411    2.4926 H   0  0  0  0  0  0  0  0  0  0  0  0
  1  6  2  0
  1  2  1  0
  2  3  2  0
  3  4  1  0
  4  5  2  0
  5  6  1  0
  6  7  1  0
  3  8  1  0
  1  9  1  0
  2 10  1  0
  4 11  1  0
  5 12  1  0
M  END
>  <_TriposChargeType>  (280) 
USER_CHARGES

>  <solvdG>  (280) 
-1.01

>  <fdG>  (280) 
-0.19

>  <fname>  (280) 
mobley_4553008

>  <cname>  (280) 
 1,4-dichlorobenzene

>  <dataset>  (280) 
FreeSolv

$$$$
2,3-dimethylbutane
     RDKit          3D

 20 19  0  0  0  0  0  0  0  0999 V2000
    0.5108   -0.7952    0.5544 C   0  0  0  0  0  0  0  0  0  0  0  0
    1.2455   -0.2135    1.7653 C   0  0  0  0  0  0  0  0  0  0  0  0
    0.2493    0.5315    2.6603 C   0  0  0  0  0  0  0  0  0  0  0  0
    2.0681   -1.2569    2.5683 C   0  0  0  0  0  0  0  0  0  0  0  0
    1.2321   -2.4040    3.1421 C   0  0  0  0  0  0  0  0  0  0  0  0
    3.2220   -1.8286    1.7375 C   0  0  0  0  0  0  0  0  0  0  0  0
    1.1901   -1.3367   -0.1113 H   0  0  0  0  0  0  0  0  0  0  0  0
   -0.2617   -1.5008    0.8796 H   0  0  0  0  0  0  0  0  0  0  0  0
    0.0108   -0.0142   -0.0254 H   0  0  0  0  0  0  0  0  0  0  0  0
    1.9519    0.5380    1.3867 H   0  0  0  0  0  0  0  0  0  0  0  0
    0.7599    0.9543    3.5325 H   0  0  0  0  0  0  0  0  0  0  0  0
   -0.2363    1.3572    2.1309 H   0  0  0  0  0  0  0  0  0  0  0  0
   -0.5284   -0.1455    3.0285 H   0  0  0  0  0  0  0  0  0  0  0  0
    2.5233   -0.7299    3.4181 H   0  0  0  0  0  0  0  0  0  0  0  0
    1.8516   -3.1131    3.6987 H   0  0  0  0  0  0  0  0  0  0  0  0
    0.4435   -2.0390    3.8077 H   0  0  0  0  0  0  0  0  0  0  0  0
    0.7466   -2.9635    2.3344 H   0  0  0  0  0  0  0  0  0  0  0  0
    3.8047   -2.5648    2.3001 H   0  0  0  0  0  0  0  0  0  0  0  0
    3.9068   -1.0295    1.4326 H   0  0  0  0  0  0  0  0  0  0  0  0
    2.8482   -2.3087    0.8272 H   0  0  0  0  0  0  0  0  0  0  0  0
  1  2  1  0
  2  3  1  0
  2  4  1  0
  4  5  1  0
  4  6  1  0
  1  7  1  0
  1  8  1  0
  1  9  1  0
  2 10  1  0
  3 11  1  0
  3 12  1  0
  3 13  1  0
  4 14  1  0
  5 15  1  0
  5 16  1  0
  5 17  1  0
  6 18  1  0
  6 19  1  0
  6 20  1  0
M  END
>  <_TriposChargeType>  (281) 
USER_CHARGES

>  <solvdG>  (281) 
2.34

>  <fdG>  (281) 
2.47

>  <fname>  (281) 
mobley_4561957

>  <cname>  (281) 
 2,3-dimethylbutane

>  <dataset>  (281) 
FreeSolv

$$$$
2,6-dimethylpyridine
     RDKit          3D

 17 17  0  0  0  0  0  0  0  0999 V2000
    0.9808   -2.1308    4.7573 C   0  0  0  0  0  0  0  0  0  0  0  0
    0.7299   -1.5161    3.4206 C   0  0  0  0  0  0  0  0  0  0  0  0
    1.6520   -0.6227    2.8997 C   0  0  0  0  0  0  0  0  0  0  0  0
    1.3879   -0.0684    1.6522 C   0  0  0  0  0  0  0  0  0  0  0  0
    0.2265   -0.4197    0.9733 C   0  0  0  0  0  0  0  0  0  0  0  0
   -0.6317   -1.3224    1.5803 C   0  0  0  0  0  0  0  0  0  0  0  0
   -0.4092   -1.8816    2.7908 N   0  0  0  0  0  0  0  0  0  0  0  0
   -1.8875   -1.7228    0.8804 C   0  0  0  0  0  0  0  0  0  0  0  0
    1.5428   -3.0626    4.6414 H   0  0  0  0  0  0  0  0  0  0  0  0
    1.5507   -1.4511    5.3994 H   0  0  0  0  0  0  0  0  0  0  0  0
    0.0382   -2.3473    5.2711 H   0  0  0  0  0  0  0  0  0  0  0  0
    2.5550   -0.3581    3.4393 H   0  0  0  0  0  0  0  0  0  0  0  0
    2.0848    0.6373    1.2103 H   0  0  0  0  0  0  0  0  0  0  0  0
    0.0081    0.0065   -0.0001 H   0  0  0  0  0  0  0  0  0  0  0  0
   -1.7089   -2.6027    0.2510 H   0  0  0  0  0  0  0  0  0  0  0  0
   -2.6830   -1.9625    1.5973 H   0  0  0  0  0  0  0  0  0  0  0  0
   -2.2650   -0.9108    0.2458 H   0  0  0  0  0  0  0  0  0  0  0  0
  1  2  1  0
  2  7  2  0
  2  3  1  0
  3  4  2  0
  4  5  1  0
  5  6  2  0
  6  7  1  0
  6  8  1  0
  1  9  1  0
  1 10  1  0
  1 11  1  0
  3 12  1  0
  4 13  1  0
  5 14  1  0
  8 15  1  0
  8 16  1  0
  8 17  1  0
M  END
>  <_TriposChargeType>  (282) 
USER_CHARGES

>  <solvdG>  (282) 
-4.59

>  <fdG>  (282) 
-3.44

>  <fname>  (282) 
mobley_4584540

>  <cname>  (282) 
 2,6-dimethylpyridine

>  <dataset>  (282) 
FreeSolv

$$$$
(2R,3R,4R,5R)-hexane-1,2,3,4,5,6-hexol
     RDKit          3D

 26 25  0  0  0  0  0  0  0  0999 V2000
    1.0215   -1.6255    5.7470 C   0  0  0  0  0  0  0  0  0  0  0  0
    0.3619   -2.1094    4.4564 C   0  0  2  0  0  0  0  0  0  0  0  0
    0.2471   -3.1988    4.4791 H   0  0  0  0  0  0  0  0  0  0  0  0
    1.0872   -1.6626    3.1711 C   0  0  2  0  0  0  0  0  0  0  0  0
    1.0983   -0.5667    3.1556 H   0  0  0  0  0  0  0  0  0  0  0  0
    0.4370   -2.1908    1.8813 C   0  0  1  0  0  0  0  0  0  0  0  0
   -0.5956   -1.8290    1.8149 H   0  0  0  0  0  0  0  0  0  0  0  0
    1.1734   -1.7656    0.5950 C   0  0  1  0  0  0  0  0  0  0  0  0
    2.2056   -2.1336    0.5967 H   0  0  0  0  0  0  0  0  0  0  0  0
    0.4731   -2.1837   -0.6960 C   0  0  0  0  0  0  0  0  0  0  0  0
    1.2492   -1.7343   -1.8039 O   0  0  0  0  0  0  0  0  0  0  0  0
    1.2567   -0.3348    0.5781 O   0  0  0  0  0  0  0  0  0  0  0  0
    0.3788   -3.6155    1.9445 O   0  0  0  0  0  0  0  0  0  0  0  0
    2.4468   -2.0947    3.2121 O   0  0  0  0  0  0  0  0  0  0  0  0
   -0.9643   -1.5662    4.4352 O   0  0  0  0  0  0  0  0  0  0  0  0
    0.4990   -2.3533    6.8559 O   0  0  0  0  0  0  0  0  0  0  0  0
    0.8093   -0.5677    5.9311 H   0  0  0  0  0  0  0  0  0  0  0  0
    2.1047   -1.7713    5.7381 H   0  0  0  0  0  0  0  0  0  0  0  0
   -0.5187   -1.7336   -0.7834 H   0  0  0  0  0  0  0  0  0  0  0  0
    0.3894   -3.2727   -0.7715 H   0  0  0  0  0  0  0  0  0  0  0  0
    0.7777   -2.0154   -2.6033 H   0  0  0  0  0  0  0  0  0  0  0  0
    1.7219   -0.1030   -0.2379 H   0  0  0  0  0  0  0  0  0  0  0  0
    1.2938   -3.9238    2.0284 H   0  0  0  0  0  0  0  0  0  0  0  0
    2.4254   -3.0614    3.2785 H   0  0  0  0  0  0  0  0  0  0  0  0
   -1.4072   -1.9094    5.2240 H   0  0  0  0  0  0  0  0  0  0  0  0
    0.9462   -2.0114    7.6455 H   0  0  0  0  0  0  0  0  0  0  0  0
  1  2  1  0
  2  3  1  1
  2  4  1  0
  4  5  1  6
  4  6  1  0
  6  7  1  6
  6  8  1  0
  8  9  1  1
  8 10  1  0
 10 11  1  0
  8 12  1  0
  6 13  1  0
  4 14  1  0
  2 15  1  0
  1 16  1  0
  1 17  1  0
  1 18  1  0
 10 19  1  0
 10 20  1  0
 11 21  1  0
 12 22  1  0
 13 23  1  0
 14 24  1  0
 15 25  1  0
 16 26  1  0
M  END
>  <_TriposChargeType>  (283) 
USER_CHARGES

>  <solvdG>  (283) 
-23.62

>  <fdG>  (283) 
-18.16

>  <fname>  (283) 
mobley_4587267

>  <cname>  (283) 
 (2R,3R,4R,5R)-Hexan-1,2,3,4,5,6-hexol

>  <dataset>  (283) 
FreeSolv

$$$$
1-chloro-2-(2-chloroethoxy)ethane
     RDKit          3D

 15 14  0  0  0  0  0  0  0  0999 V2000
   -0.7818   -0.2452   -0.7259 C   0  0  0  0  0  0  0  0  0  0  0  0
    0.2691    0.0621    0.3248 C   0  0  0  0  0  0  0  0  0  0  0  0
    1.3538   -1.3317    0.5624 Cl  0  0  0  0  0  0  0  0  0  0  0  0
   -0.1499   -0.5456   -1.9628 O   0  0  0  0  0  0  0  0  0  0  0  0
   -1.1011   -0.8401   -2.9768 C   0  0  0  0  0  0  0  0  0  0  0  0
   -0.3835   -1.1540   -4.2766 C   0  0  0  0  0  0  0  0  0  0  0  0
    0.6035    0.2321   -4.8058 Cl  0  0  0  0  0  0  0  0  0  0  0  0
   -1.4138   -1.0895   -0.4317 H   0  0  0  0  0  0  0  0  0  0  0  0
   -1.4194    0.6314   -0.8785 H   0  0  0  0  0  0  0  0  0  0  0  0
    0.8937    0.9088    0.0257 H   0  0  0  0  0  0  0  0  0  0  0  0
   -0.1984    0.2804    1.2888 H   0  0  0  0  0  0  0  0  0  0  0  0
   -1.7836    0.0091   -3.0858 H   0  0  0  0  0  0  0  0  0  0  0  0
   -1.6780   -1.7122   -2.6531 H   0  0  0  0  0  0  0  0  0  0  0  0
    0.2932   -2.0055   -4.1607 H   0  0  0  0  0  0  0  0  0  0  0  0
   -1.1007   -1.3679   -5.0736 H   0  0  0  0  0  0  0  0  0  0  0  0
  1  2  1  0
  2  3  1  0
  1  4  1  0
  4  5  1  0
  5  6  1  0
  6  7  1  0
  1  8  1  0
  1  9  1  0
  2 10  1  0
  2 11  1  0
  5 12  1  0
  5 13  1  0
  6 14  1  0
  6 15  1  0
M  END
>  <_TriposChargeType>  (284) 
USER_CHARGES

>  <solvdG>  (284) 
-4.23

>  <fdG>  (284) 
-2.25

>  <fname>  (284) 
mobley_4603202

>  <cname>  (284) 
 1-chloro-2-(2-chloroethoxy)ethane

>  <dataset>  (284) 
FreeSolv

$$$$
ethyl 4-hydroxybenzoate
     RDKit          3D

 22 22  0  0  0  0  0  0  0  0999 V2000
   -0.8748   -1.0350   -3.9103 C   0  0  0  0  0  0  0  0  0  0  0  0
    0.5839   -1.0128   -3.5063 C   0  0  0  0  0  0  0  0  0  0  0  0
    0.6724   -1.0309   -2.0775 O   0  0  0  0  0  0  0  0  0  0  0  0
    1.9295   -1.0140   -1.5659 C   0  0  0  0  0  0  0  0  0  0  0  0
    2.9704   -0.9853   -2.2039 O   0  0  0  0  0  0  0  0  0  0  0  0
    1.8851   -1.0363   -0.1124 C   0  0  0  0  0  0  0  0  0  0  0  0
    2.9210   -1.6309    0.6081 C   0  0  0  0  0  0  0  0  0  0  0  0
    2.8783   -1.6520    2.0022 C   0  0  0  0  0  0  0  0  0  0  0  0
    1.7997   -1.0786    2.6757 C   0  0  0  0  0  0  0  0  0  0  0  0
    0.7638   -0.4841    1.9551 C   0  0  0  0  0  0  0  0  0  0  0  0
    0.8066   -0.4630    0.5610 C   0  0  0  0  0  0  0  0  0  0  0  0
    1.7572   -1.0988    4.0360 O   0  0  0  0  0  0  0  0  0  0  0  0
   -0.9784   -1.0220   -4.9989 H   0  0  0  0  0  0  0  0  0  0  0  0
   -1.3702   -1.9295   -3.5187 H   0  0  0  0  0  0  0  0  0  0  0  0
   -1.4035   -0.1707   -3.4948 H   0  0  0  0  0  0  0  0  0  0  0  0
    1.0714   -0.1066   -3.8781 H   0  0  0  0  0  0  0  0  0  0  0  0
    1.1056   -1.8889   -3.9028 H   0  0  0  0  0  0  0  0  0  0  0  0
    3.7661   -2.0813    0.0940 H   0  0  0  0  0  0  0  0  0  0  0  0
    3.6886   -2.1157    2.5579 H   0  0  0  0  0  0  0  0  0  0  0  0
   -0.0793   -0.0363    2.4742 H   0  0  0  0  0  0  0  0  0  0  0  0
   -0.0055    0.0036    0.0092 H   0  0  0  0  0  0  0  0  0  0  0  0
    2.5434   -1.5438    4.3905 H   0  0  0  0  0  0  0  0  0  0  0  0
  1  2  1  0
  2  3  1  0
  3  4  1  0
  4  5  2  0
  4  6  1  0
  6 11  2  0
  6  7  1  0
  7  8  2  0
  8  9  1  0
  9 10  2  0
 10 11  1  0
  9 12  1  0
  1 13  1  0
  1 14  1  0
  1 15  1  0
  2 16  1  0
  2 17  1  0
  7 18  1  0
  8 19  1  0
 10 20  1  0
 11 21  1  0
 12 22  1  0
M  END
>  <_TriposChargeType>  (285) 
USER_CHARGES

>  <solvdG>  (285) 
-9.2

>  <fdG>  (285) 
-9.54

>  <fname>  (285) 
mobley_4609460

>  <cname>  (285) 
 ethyl paraben

>  <dataset>  (285) 
FreeSolv

$$$$
1-benzylimidazole
     RDKit          3D

 22 23  0  0  0  0  0  0  0  0999 V2000
    1.8851   -1.0363   -0.1124 C   0  0  0  0  0  0  0  0  0  0  0  0
    2.9210   -1.6309    0.6081 C   0  0  0  0  0  0  0  0  0  0  0  0
    2.8783   -1.6520    2.0022 C   0  0  0  0  0  0  0  0  0  0  0  0
    1.7997   -1.0786    2.6757 C   0  0  0  0  0  0  0  0  0  0  0  0
    0.7638   -0.4841    1.9551 C   0  0  0  0  0  0  0  0  0  0  0  0
    0.8066   -0.4630    0.5610 C   0  0  0  0  0  0  0  0  0  0  0  0
    1.7548   -1.1014    4.1663 C   0  0  0  0  0  0  0  0  0  0  0  0
    2.3952    0.0815    4.7508 N   0  0  0  0  0  0  0  0  0  0  0  0
    3.7161    0.2103    5.1004 C   0  0  0  0  0  0  0  0  0  0  0  0
    3.9724    1.4564    5.6221 C   0  0  0  0  0  0  0  0  0  0  0  0
    2.7697    2.1041    5.5879 N   0  0  0  0  0  0  0  0  0  0  0  0
    1.8532    1.2391    5.0577 C   0  0  0  0  0  0  0  0  0  0  0  0
    1.9176   -1.0210   -1.1980 H   0  0  0  0  0  0  0  0  0  0  0  0
    3.7604   -2.0783    0.0841 H   0  0  0  0  0  0  0  0  0  0  0  0
    3.6899   -2.1173    2.5553 H   0  0  0  0  0  0  0  0  0  0  0  0
   -0.0804   -0.0348    2.4713 H   0  0  0  0  0  0  0  0  0  0  0  0
   -0.0006   -0.0010    0.0001 H   0  0  0  0  0  0  0  0  0  0  0  0
    0.7207   -1.1415    4.5441 H   0  0  0  0  0  0  0  0  0  0  0  0
    2.2590   -1.9904    4.5777 H   0  0  0  0  0  0  0  0  0  0  0  0
    4.3906   -0.6213    4.9450 H   0  0  0  0  0  0  0  0  0  0  0  0
    4.8841    1.8960    5.9931 H   0  0  0  0  0  0  0  0  0  0  0  0
    0.8115    1.4963    4.9165 H   0  0  0  0  0  0  0  0  0  0  0  0
  1  6  2  0
  1  2  1  0
  2  3  2  0
  3  4  1  0
  4  5  2  0
  5  6  1  0
  4  7  1  0
  7  8  1  0
  8 12  1  0
  8  9  1  0
  9 10  2  0
 10 11  1  0
 11 12  2  0
  1 13  1  0
  2 14  1  0
  3 15  1  0
  5 16  1  0
  6 17  1  0
  7 18  1  0
  7 19  1  0
  9 20  1  0
 10 21  1  0
 12 22  1  0
M  END
>  <_TriposChargeType>  (286) 
USER_CHARGES

>  <solvdG>  (286) 
-7.63

>  <fdG>  (286) 
-8.0

>  <fname>  (286) 
mobley_4613090

>  <cname>  (286) 
 1-benzylimidazole

>  <dataset>  (286) 
FreeSolv

$$$$
methyl cyclopropanecarboxylate
     RDKit          3D

 15 15  0  0  0  0  0  0  0  0999 V2000
   -3.6262    0.6760    2.2598 C   0  0  0  0  0  0  0  0  0  0  0  0
   -2.6771    0.5474    1.1964 O   0  0  0  0  0  0  0  0  0  0  0  0
   -1.8735   -0.5523    1.2582 C   0  0  0  0  0  0  0  0  0  0  0  0
   -1.8925   -1.4181    2.1226 O   0  0  0  0  0  0  0  0  0  0  0  0
   -0.9373   -0.5552    0.0879 C   0  0  0  0  0  0  0  0  0  0  0  0
    0.3322    0.2163    0.1982 C   0  0  0  0  0  0  0  0  0  0  0  0
    0.3559   -1.2828    0.2194 C   0  0  0  0  0  0  0  0  0  0  0  0
   -4.2156    1.5847    2.1153 H   0  0  0  0  0  0  0  0  0  0  0  0
   -3.0994    0.7188    3.2164 H   0  0  0  0  0  0  0  0  0  0  0  0
   -4.2903   -0.1916    2.2504 H   0  0  0  0  0  0  0  0  0  0  0  0
   -1.4460   -0.5767   -0.8555 H   0  0  0  0  0  0  0  0  0  0  0  0
    0.7364    0.7134   -0.6752 H   0  0  0  0  0  0  0  0  0  0  0  0
    0.5091    0.7369    1.1314 H   0  0  0  0  0  0  0  0  0  0  0  0
    0.7757   -1.7917   -0.6398 H   0  0  0  0  0  0  0  0  0  0  0  0
    0.5485   -1.7711    1.1670 H   0  0  0  0  0  0  0  0  0  0  0  0
  1  2  1  0
  2  3  1  0
  3  4  2  0
  3  5  1  0
  5  7  1  0
  5  6  1  0
  6  7  1  0
  1  8  1  0
  1  9  1  0
  1 10  1  0
  5 11  1  0
  6 12  1  0
  6 13  1  0
  7 14  1  0
  7 15  1  0
M  END
>  <_TriposChargeType>  (287) 
USER_CHARGES

>  <solvdG>  (287) 
-4.1

>  <fdG>  (287) 
-3.6

>  <fname>  (287) 
mobley_4620651

>  <cname>  (287) 
 methyl cyclopropanecarboxylate

>  <dataset>  (287) 
FreeSolv

$$$$
1,2-dimethoxyethane
     RDKit          3D

 16 15  0  0  0  0  0  0  0  0999 V2000
    0.3042    0.8204    2.4305 C   0  0  0  0  0  0  0  0  0  0  0  0
   -0.8526    0.2362    1.8472 O   0  0  0  0  0  0  0  0  0  0  0  0
   -0.8936    0.4506    0.4416 C   0  0  0  0  0  0  0  0  0  0  0  0
   -2.1461   -0.1936   -0.1209 C   0  0  0  0  0  0  0  0  0  0  0  0
   -2.1145   -1.5886    0.1552 O   0  0  0  0  0  0  0  0  0  0  0  0
   -3.2680   -2.2457   -0.3510 C   0  0  0  0  0  0  0  0  0  0  0  0
    0.3025    0.6364    3.5077 H   0  0  0  0  0  0  0  0  0  0  0  0
    0.3093    1.8954    2.2337 H   0  0  0  0  0  0  0  0  0  0  0  0
    1.1937    0.3665    1.9872 H   0  0  0  0  0  0  0  0  0  0  0  0
   -0.8901    1.5299    0.2612 H   0  0  0  0  0  0  0  0  0  0  0  0
    0.0000    0.0000    0.0000 H   0  0  0  0  0  0  0  0  0  0  0  0
   -2.2043   -0.0621   -1.2059 H   0  0  0  0  0  0  0  0  0  0  0  0
   -3.0385    0.2289    0.3500 H   0  0  0  0  0  0  0  0  0  0  0  0
   -3.2066   -3.3103   -0.1199 H   0  0  0  0  0  0  0  0  0  0  0  0
   -3.3240   -2.0949   -1.4303 H   0  0  0  0  0  0  0  0  0  0  0  0
   -4.1519   -1.8184    0.1248 H   0  0  0  0  0  0  0  0  0  0  0  0
  1  2  1  0
  2  3  1  0
  3  4  1  0
  4  5  1  0
  5  6  1  0
  1  7  1  0
  1  8  1  0
  1  9  1  0
  3 10  1  0
  3 11  1  0
  4 12  1  0
  4 13  1  0
  6 14  1  0
  6 15  1  0
  6 16  1  0
M  END
>  <_TriposChargeType>  (288) 
USER_CHARGES

>  <solvdG>  (288) 
-4.84

>  <fdG>  (288) 
-3.1

>  <fname>  (288) 
mobley_4630641

>  <cname>  (288) 
 1,2-dimethoxyethane

>  <dataset>  (288) 
FreeSolv

$$$$
ethylene glycol
     RDKit          3D

 10  9  0  0  0  0  0  0  0  0999 V2000
   -2.1461   -0.1936   -0.1209 C   0  0  0  0  0  0  0  0  0  0  0  0
   -0.8936    0.4506    0.4416 C   0  0  0  0  0  0  0  0  0  0  0  0
   -0.8122    1.7920   -0.0246 O   0  0  0  0  0  0  0  0  0  0  0  0
   -3.2827    0.5410    0.3172 O   0  0  0  0  0  0  0  0  0  0  0  0
   -2.2509   -1.2251    0.2298 H   0  0  0  0  0  0  0  0  0  0  0  0
   -2.1275   -0.1762   -1.2145 H   0  0  0  0  0  0  0  0  0  0  0  0
    0.0049   -0.0799    0.1119 H   0  0  0  0  0  0  0  0  0  0  0  0
   -0.9307    0.4694    1.5347 H   0  0  0  0  0  0  0  0  0  0  0  0
   -0.0025    2.1702    0.3539 H   0  0  0  0  0  0  0  0  0  0  0  0
   -4.0613    0.1016   -0.0604 H   0  0  0  0  0  0  0  0  0  0  0  0
  1  2  1  0
  2  3  1  0
  1  4  1  0
  1  5  1  0
  1  6  1  0
  2  7  1  0
  2  8  1  0
  3  9  1  0
  4 10  1  0
M  END
>  <_TriposChargeType>  (289) 
USER_CHARGES

>  <solvdG>  (289) 
-9.3

>  <fdG>  (289) 
-7.27

>  <fname>  (289) 
mobley_4639255

>  <cname>  (289) 
 ethylene glycol

>  <dataset>  (289) 
FreeSolv

$$$$
1,3-bis(trifluoromethyl)benzene
     RDKit          3D

 18 18  0  0  0  0  0  0  0  0999 V2000
    1.8851   -1.0363   -0.1124 C   0  0  0  0  0  0  0  0  0  0  0  0
    2.9210   -1.6309    0.6081 C   0  0  0  0  0  0  0  0  0  0  0  0
    2.8783   -1.6520    2.0022 C   0  0  0  0  0  0  0  0  0  0  0  0
    1.7997   -1.0786    2.6757 C   0  0  0  0  0  0  0  0  0  0  0  0
    0.7638   -0.4841    1.9551 C   0  0  0  0  0  0  0  0  0  0  0  0
    0.8066   -0.4630    0.5610 C   0  0  0  0  0  0  0  0  0  0  0  0
   -0.3905    0.1278    2.6743 C   0  0  0  0  0  0  0  0  0  0  0  0
   -0.3008    0.0332    4.0341 F   0  0  0  0  0  0  0  0  0  0  0  0
   -0.5490    1.4604    2.4200 F   0  0  0  0  0  0  0  0  0  0  0  0
   -1.5815   -0.4519    2.3450 F   0  0  0  0  0  0  0  0  0  0  0  0
    3.9863   -2.2872    2.7726 C   0  0  0  0  0  0  0  0  0  0  0  0
    4.9738   -2.8060    1.9843 F   0  0  0  0  0  0  0  0  0  0  0  0
    4.6234   -1.4285    3.6225 F   0  0  0  0  0  0  0  0  0  0  0  0
    3.5577   -3.3227    3.5516 F   0  0  0  0  0  0  0  0  0  0  0  0
    1.9183   -1.0199   -1.1980 H   0  0  0  0  0  0  0  0  0  0  0  0
    3.7578   -2.0744    0.0751 H   0  0  0  0  0  0  0  0  0  0  0  0
    1.7665   -1.0963    3.7625 H   0  0  0  0  0  0  0  0  0  0  0  0
    0.0037   -0.0025   -0.0089 H   0  0  0  0  0  0  0  0  0  0  0  0
  1  6  2  0
  1  2  1  0
  2  3  2  0
  3  4  1  0
  4  5  2  0
  5  6  1  0
  5  7  1  0
  7  8  1  0
  7  9  1  0
  7 10  1  0
  3 11  1  0
 11 12  1  0
 11 13  1  0
 11 14  1  0
  1 15  1  0
  2 16  1  0
  4 17  1  0
  6 18  1  0
M  END
>  <_TriposChargeType>  (290) 
USER_CHARGES

>  <solvdG>  (290) 
1.07

>  <fdG>  (290) 
-0.34

>  <fname>  (290) 
mobley_4678740

>  <cname>  (290) 
 m-bis(trifluoromethyl)benzene

>  <dataset>  (290) 
FreeSolv

$$$$
4-propylphenol
     RDKit          3D

 22 22  0  0  0  0  0  0  0  0999 V2000
    1.3035   -2.2292   -3.7215 C   0  0  0  0  0  0  0  0  0  0  0  0
    1.2575   -2.2526   -2.2019 C   0  0  0  0  0  0  0  0  0  0  0  0
    1.9293   -1.0151   -1.6028 C   0  0  0  0  0  0  0  0  0  0  0  0
    1.8851   -1.0363   -0.1124 C   0  0  0  0  0  0  0  0  0  0  0  0
    2.9210   -1.6309    0.6081 C   0  0  0  0  0  0  0  0  0  0  0  0
    2.8783   -1.6520    2.0022 C   0  0  0  0  0  0  0  0  0  0  0  0
    1.7997   -1.0786    2.6757 C   0  0  0  0  0  0  0  0  0  0  0  0
    0.7638   -0.4841    1.9551 C   0  0  0  0  0  0  0  0  0  0  0  0
    0.8066   -0.4630    0.5610 C   0  0  0  0  0  0  0  0  0  0  0  0
    1.7576   -1.1000    4.0359 O   0  0  0  0  0  0  0  0  0  0  0  0
    0.8212   -3.1173   -4.1422 H   0  0  0  0  0  0  0  0  0  0  0  0
    0.7966   -1.3426   -4.1156 H   0  0  0  0  0  0  0  0  0  0  0  0
    2.3412   -2.2097   -4.0691 H   0  0  0  0  0  0  0  0  0  0  0  0
    1.7527   -3.1626   -1.8419 H   0  0  0  0  0  0  0  0  0  0  0  0
    0.2121   -2.3104   -1.8753 H   0  0  0  0  0  0  0  0  0  0  0  0
    1.4367   -0.1076   -1.9753 H   0  0  0  0  0  0  0  0  0  0  0  0
    2.9716   -0.9570   -1.9422 H   0  0  0  0  0  0  0  0  0  0  0  0
    3.7658   -2.0790    0.0917 H   0  0  0  0  0  0  0  0  0  0  0  0
    3.6884   -2.1165    2.5581 H   0  0  0  0  0  0  0  0  0  0  0  0
   -0.0791   -0.0355    2.4742 H   0  0  0  0  0  0  0  0  0  0  0  0
   -0.0046    0.0033    0.0079 H   0  0  0  0  0  0  0  0  0  0  0  0
    0.9506   -0.6650    4.3543 H   0  0  0  0  0  0  0  0  0  0  0  0
  1  2  1  0
  2  3  1  0
  3  4  1  0
  4  9  2  0
  4  5  1  0
  5  6  2  0
  6  7  1  0
  7  8  2  0
  8  9  1  0
  7 10  1  0
  1 11  1  0
  1 12  1  0
  1 13  1  0
  2 14  1  0
  2 15  1  0
  3 16  1  0
  3 17  1  0
  5 18  1  0
  6 19  1  0
  8 20  1  0
  9 21  1  0
 10 22  1  0
M  END
>  <_TriposChargeType>  (291) 
USER_CHARGES

>  <solvdG>  (291) 
-5.21

>  <fdG>  (291) 
-5.21

>  <fname>  (291) 
mobley_4683624

>  <cname>  (291) 
 4-propylphenol

>  <dataset>  (291) 
FreeSolv

$$$$
2-propoxyethanol
     RDKit          3D

 19 18  0  0  0  0  0  0  0  0999 V2000
   -0.0023   -0.6657    0.8688 C   0  0  0  0  0  0  0  0  0  0  0  0
    1.2444   -0.4434    1.7060 C   0  0  0  0  0  0  0  0  0  0  0  0
    1.2749   -1.3494    2.9273 C   0  0  0  0  0  0  0  0  0  0  0  0
    2.4629   -1.0899    3.6622 O   0  0  0  0  0  0  0  0  0  0  0  0
    2.5499   -1.9092    4.8204 C   0  0  0  0  0  0  0  0  0  0  0  0
    3.8344   -1.5872    5.5603 C   0  0  0  0  0  0  0  0  0  0  0  0
    4.9401   -1.8428    4.7028 O   0  0  0  0  0  0  0  0  0  0  0  0
   -0.0099   -0.0072   -0.0057 H   0  0  0  0  0  0  0  0  0  0  0  0
   -0.0425   -1.7005    0.5148 H   0  0  0  0  0  0  0  0  0  0  0  0
   -0.9071   -0.4713    1.4534 H   0  0  0  0  0  0  0  0  0  0  0  0
    1.2973    0.6048    2.0240 H   0  0  0  0  0  0  0  0  0  0  0  0
    2.1387   -0.6182    1.0958 H   0  0  0  0  0  0  0  0  0  0  0  0
    0.4147   -1.1588    3.5770 H   0  0  0  0  0  0  0  0  0  0  0  0
    1.2712   -2.4035    2.6320 H   0  0  0  0  0  0  0  0  0  0  0  0
    1.6743   -1.7101    5.4465 H   0  0  0  0  0  0  0  0  0  0  0  0
    2.5444   -2.9561    4.5021 H   0  0  0  0  0  0  0  0  0  0  0  0
    3.9429   -2.2124    6.4521 H   0  0  0  0  0  0  0  0  0  0  0  0
    3.8586   -0.5313    5.8452 H   0  0  0  0  0  0  0  0  0  0  0  0
    5.7404   -1.6266    5.2076 H   0  0  0  0  0  0  0  0  0  0  0  0
  1  2  1  0
  2  3  1  0
  3  4  1  0
  4  5  1  0
  5  6  1  0
  6  7  1  0
  1  8  1  0
  1  9  1  0
  1 10  1  0
  2 11  1  0
  2 12  1  0
  3 13  1  0
  3 14  1  0
  5 15  1  0
  5 16  1  0
  6 17  1  0
  6 18  1  0
  7 19  1  0
M  END
>  <_TriposChargeType>  (292) 
USER_CHARGES

>  <solvdG>  (292) 
-6.4

>  <fdG>  (292) 
-3.94

>  <fname>  (292) 
mobley_4687447

>  <cname>  (292) 
 2-propoxyethanol

>  <dataset>  (292) 
FreeSolv

$$$$
(2S,3S,4S,7S,8R)-3,5,6,7,8,9,9-heptachlorotricyclo[BLAH.BLAH.BLAH.BLAH]deca-,5-diene
     RDKit          3D

 22 24  0  0  0  0  0  0  0  0999 V2000
    0.8376    1.2944   -1.8439 C   0  0  0  0  0  0  0  0  0  0  0  0
    1.9517    0.5553   -1.8617 C   0  0  0  0  0  0  0  0  0  0  0  0
    1.7399   -0.8437   -1.3754 C   0  0  1  0  0  0  0  0  0  0  0  0
    2.4064   -1.0930   -0.5470 H   0  0  0  0  0  0  0  0  0  0  0  0
    0.2495   -0.8874   -0.9940 C   0  0  2  0  0  0  0  0  0  0  0  0
   -0.2801   -1.6561   -1.5726 H   0  0  0  0  0  0  0  0  0  0  0  0
   -0.3433    0.5284   -1.3416 C   0  0  1  0  0  0  0  0  0  0  0  0
   -1.0894    0.4407   -2.1408 H   0  0  0  0  0  0  0  0  0  0  0  0
   -0.9866    0.9755    0.0146 C   0  0  2  0  0  0  0  0  0  0  0  0
    0.1295    1.2082    1.0161 C   0  0  0  0  0  0  0  0  0  0  0  0
    0.6496    0.0126    1.3195 C   0  0  0  0  0  0  0  0  0  0  0  0
   -0.1163   -1.0309    0.5268 C   0  0  1  0  0  0  0  0  0  0  0  0
   -1.5382   -0.3770    0.5734 C   0  0  0  0  0  0  0  0  0  0  0  0
   -2.2572   -0.2676    2.2239 Cl  0  0  0  0  0  0  0  0  0  0  0  0
   -2.7702   -1.1677   -0.4621 Cl  0  0  0  0  0  0  0  0  0  0  0  0
   -0.0298   -2.6776    1.1185 Cl  0  0  0  0  0  0  0  0  0  0  0  0
    1.9393   -0.3267    2.3630 Cl  0  0  0  0  0  0  0  0  0  0  0  0
    0.6186    2.7311    1.5704 Cl  0  0  0  0  0  0  0  0  0  0  0  0
   -2.1725    2.2545   -0.1473 Cl  0  0  0  0  0  0  0  0  0  0  0  0
    2.0985   -1.9816   -2.7002 Cl  0  0  0  0  0  0  0  0  0  0  0  0
    0.7917    2.3279   -2.1562 H   0  0  0  0  0  0  0  0  0  0  0  0
    2.9118    0.9334   -2.1859 H   0  0  0  0  0  0  0  0  0  0  0  0
  1  7  1  0
  1  2  2  0
  2  3  1  0
  3  4  1  1
  3  5  1  0
  5  6  1  6
  5 12  1  0
  5  7  1  0
  7  8  1  6
  7  9  1  0
  9 13  1  0
  9 10  1  0
 10 11  2  0
 11 12  1  0
 12 13  1  0
 13 14  1  0
 13 15  1  0
 12 16  1  1
 11 17  1  0
 10 18  1  0
  9 19  1  6
  3 20  1  0
  1 21  1  0
  2 22  1  0
M  END
>  <_TriposChargeType>  (293) 
USER_CHARGES

>  <solvdG>  (293) 
-2.55

>  <fdG>  (293) 
-0.97

>  <fname>  (293) 
mobley_468867

>  <cname>  (293) 
 heptachlor

>  <dataset>  (293) 
FreeSolv

$$$$
2-acetoxyethyl acetate
     RDKit          3D

 20 19  0  0  0  0  0  0  0  0999 V2000
   -0.1306    1.1111   -0.1834 C   0  0  0  0  0  0  0  0  0  0  0  0
   -0.7126    1.3208   -1.5485 C   0  0  0  0  0  0  0  0  0  0  0  0
   -0.1670    1.9646   -2.4344 O   0  0  0  0  0  0  0  0  0  0  0  0
   -1.9187    0.6904   -1.6316 O   0  0  0  0  0  0  0  0  0  0  0  0
   -2.5898    0.8104   -2.8899 C   0  0  0  0  0  0  0  0  0  0  0  0
   -3.9023    0.0599   -2.8144 C   0  0  0  0  0  0  0  0  0  0  0  0
   -3.6412   -1.3094   -2.5310 O   0  0  0  0  0  0  0  0  0  0  0  0
   -4.7406   -2.1162   -2.4327 C   0  0  0  0  0  0  0  0  0  0  0  0
   -5.9055   -1.7662   -2.5654 O   0  0  0  0  0  0  0  0  0  0  0  0
   -4.3155   -3.5218   -2.1337 C   0  0  0  0  0  0  0  0  0  0  0  0
   -0.4556    1.9119    0.4853 H   0  0  0  0  0  0  0  0  0  0  0  0
    0.9601    1.0798   -0.2460 H   0  0  0  0  0  0  0  0  0  0  0  0
   -0.4833    0.1567    0.2184 H   0  0  0  0  0  0  0  0  0  0  0  0
   -2.7474    1.8733   -3.0823 H   0  0  0  0  0  0  0  0  0  0  0  0
   -1.9414    0.3825   -3.6563 H   0  0  0  0  0  0  0  0  0  0  0  0
   -4.4470    0.1140   -3.7622 H   0  0  0  0  0  0  0  0  0  0  0  0
   -4.5225    0.4644   -2.0092 H   0  0  0  0  0  0  0  0  0  0  0  0
   -4.2652   -3.6721   -1.0525 H   0  0  0  0  0  0  0  0  0  0  0  0
   -3.3458   -3.7224   -2.5963 H   0  0  0  0  0  0  0  0  0  0  0  0
   -5.0494   -4.2187   -2.5488 H   0  0  0  0  0  0  0  0  0  0  0  0
  1  2  1  0
  2  3  2  0
  2  4  1  0
  4  5  1  0
  5  6  1  0
  6  7  1  0
  7  8  1  0
  8  9  2  0
  8 10  1  0
  1 11  1  0
  1 12  1  0
  1 13  1  0
  5 14  1  0
  5 15  1  0
  6 16  1  0
  6 17  1  0
 10 18  1  0
 10 19  1  0
 10 20  1  0
M  END
>  <_TriposChargeType>  (294) 
USER_CHARGES

>  <solvdG>  (294) 
-6.34

>  <fdG>  (294) 
-8.33

>  <fname>  (294) 
mobley_4689084

>  <cname>  (294) 
 2-acetoxyethyl acetate

>  <dataset>  (294) 
FreeSolv

$$$$
1,2-diethoxyethane
     RDKit          3D

 22 21  0  0  0  0  0  0  0  0999 V2000
    0.2901    0.5589    3.9216 C   0  0  0  0  0  0  0  0  0  0  0  0
    0.3042    0.8204    2.4305 C   0  0  0  0  0  0  0  0  0  0  0  0
   -0.8526    0.2362    1.8472 O   0  0  0  0  0  0  0  0  0  0  0  0
   -0.8936    0.4506    0.4416 C   0  0  0  0  0  0  0  0  0  0  0  0
   -2.1461   -0.1936   -0.1209 C   0  0  0  0  0  0  0  0  0  0  0  0
   -2.1145   -1.5886    0.1552 O   0  0  0  0  0  0  0  0  0  0  0  0
   -3.2680   -2.2457   -0.3510 C   0  0  0  0  0  0  0  0  0  0  0  0
   -3.1758   -3.7212   -0.0269 C   0  0  0  0  0  0  0  0  0  0  0  0
    1.1693    0.9964    4.4028 H   0  0  0  0  0  0  0  0  0  0  0  0
   -0.6104    0.9814    4.3791 H   0  0  0  0  0  0  0  0  0  0  0  0
    0.2752   -0.5172    4.1244 H   0  0  0  0  0  0  0  0  0  0  0  0
    1.1928    0.3767    1.9715 H   0  0  0  0  0  0  0  0  0  0  0  0
    0.2958    1.8957    2.2292 H   0  0  0  0  0  0  0  0  0  0  0  0
   -0.8901    1.5299    0.2612 H   0  0  0  0  0  0  0  0  0  0  0  0
    0.0000    0.0000    0.0000 H   0  0  0  0  0  0  0  0  0  0  0  0
   -2.2043   -0.0621   -1.2059 H   0  0  0  0  0  0  0  0  0  0  0  0
   -3.0385    0.2289    0.3500 H   0  0  0  0  0  0  0  0  0  0  0  0
   -4.1553   -1.8050    0.1125 H   0  0  0  0  0  0  0  0  0  0  0  0
   -3.3139   -2.0916   -1.4329 H   0  0  0  0  0  0  0  0  0  0  0  0
   -4.0507   -4.2582   -0.4037 H   0  0  0  0  0  0  0  0  0  0  0  0
   -2.2749   -4.1585   -0.4696 H   0  0  0  0  0  0  0  0  0  0  0  0
   -3.1057   -3.8753    1.0550 H   0  0  0  0  0  0  0  0  0  0  0  0
  1  2  1  0
  2  3  1  0
  3  4  1  0
  4  5  1  0
  5  6  1  0
  6  7  1  0
  7  8  1  0
  1  9  1  0
  1 10  1  0
  1 11  1  0
  2 12  1  0
  2 13  1  0
  4 14  1  0
  4 15  1  0
  5 16  1  0
  5 17  1  0
  7 18  1  0
  7 19  1  0
  8 20  1  0
  8 21  1  0
  8 22  1  0
M  END
>  <_TriposChargeType>  (295) 
USER_CHARGES

>  <solvdG>  (295) 
-3.54

>  <fdG>  (295) 
-3.42

>  <fname>  (295) 
mobley_4690963

>  <cname>  (295) 
 1,2-diethoxyethane

>  <dataset>  (295) 
FreeSolv

$$$$
octanal
     RDKit          3D

 25 24  0  0  0  0  0  0  0  0999 V2000
    1.0101   -3.8432   -1.0281 C   0  0  0  0  0  0  0  0  0  0  0  0
    0.0930   -2.6479   -0.8231 C   0  0  0  0  0  0  0  0  0  0  0  0
    0.8105   -1.5090   -0.0992 C   0  0  0  0  0  0  0  0  0  0  0  0
   -0.1160   -0.3081    0.1050 C   0  0  0  0  0  0  0  0  0  0  0  0
    0.6050    0.8305    0.8299 C   0  0  0  0  0  0  0  0  0  0  0  0
   -0.2785    2.0593    1.0604 C   0  0  0  0  0  0  0  0  0  0  0  0
    0.4396    3.1952    1.7832 C   0  0  0  0  0  0  0  0  0  0  0  0
   -0.4496    4.3966    2.0001 C   0  0  0  0  0  0  0  0  0  0  0  0
   -1.6205    4.4735    1.6439 O   0  0  0  0  0  0  0  0  0  0  0  0
    0.4883   -4.6537   -1.5470 H   0  0  0  0  0  0  0  0  0  0  0  0
    1.3561   -4.2254   -0.0626 H   0  0  0  0  0  0  0  0  0  0  0  0
    1.8893   -3.5666   -1.6188 H   0  0  0  0  0  0  0  0  0  0  0  0
   -0.7840   -2.9626   -0.2456 H   0  0  0  0  0  0  0  0  0  0  0  0
   -0.2681   -2.3005   -1.7981 H   0  0  0  0  0  0  0  0  0  0  0  0
    1.1739   -1.8633    0.8732 H   0  0  0  0  0  0  0  0  0  0  0  0
    1.6888   -1.2003   -0.6795 H   0  0  0  0  0  0  0  0  0  0  0  0
   -0.9938   -0.6165    0.6857 H   0  0  0  0  0  0  0  0  0  0  0  0
   -0.4759    0.0362   -0.8710 H   0  0  0  0  0  0  0  0  0  0  0  0
    1.4996    1.1214    0.2662 H   0  0  0  0  0  0  0  0  0  0  0  0
    0.9509    0.4706    1.8069 H   0  0  0  0  0  0  0  0  0  0  0  0
   -0.6709    2.4183    0.1008 H   0  0  0  0  0  0  0  0  0  0  0  0
   -1.1497    1.7492    1.6515 H   0  0  0  0  0  0  0  0  0  0  0  0
    0.7856    2.8627    2.7677 H   0  0  0  0  0  0  0  0  0  0  0  0
    1.3074    3.5379    1.2112 H   0  0  0  0  0  0  0  0  0  0  0  0
    0.0342    5.2455    2.5136 H   0  0  0  0  0  0  0  0  0  0  0  0
  1  2  1  0
  2  3  1  0
  3  4  1  0
  4  5  1  0
  5  6  1  0
  6  7  1  0
  7  8  1  0
  8  9  2  0
  1 10  1  0
  1 11  1  0
  1 12  1  0
  2 13  1  0
  2 14  1  0
  3 15  1  0
  3 16  1  0
  4 17  1  0
  4 18  1  0
  5 19  1  0
  5 20  1  0
  6 21  1  0
  6 22  1  0
  7 23  1  0
  7 24  1  0
  8 25  1  0
M  END
>  <_TriposChargeType>  (296) 
USER_CHARGES

>  <solvdG>  (296) 
-2.29

>  <fdG>  (296) 
-2.57

>  <fname>  (296) 
mobley_4694328

>  <cname>  (296) 
 octanal

>  <dataset>  (296) 
FreeSolv

$$$$
(2S)-1,2-dichloropropane
     RDKit          3D

 11 10  0  0  0  0  0  0  0  0999 V2000
    0.8719   -0.5290    0.4006 C   0  0  0  0  0  0  0  0  0  0  0  0
    1.2565    0.0257    1.7670 C   0  0  1  0  0  0  0  0  0  0  0  0
    1.3857    1.1097    1.6751 H   0  0  0  0  0  0  0  0  0  0  0  0
    0.2164   -0.2402    2.8566 C   0  0  0  0  0  0  0  0  0  0  0  0
   -0.0992   -1.9708    3.1383 Cl  0  0  0  0  0  0  0  0  0  0  0  0
    2.8548   -0.6173    2.2521 Cl  0  0  0  0  0  0  0  0  0  0  0  0
    0.7259   -1.6139    0.4186 H   0  0  0  0  0  0  0  0  0  0  0  0
   -0.0613   -0.0759    0.0481 H   0  0  0  0  0  0  0  0  0  0  0  0
    1.6476   -0.3036   -0.3389 H   0  0  0  0  0  0  0  0  0  0  0  0
    0.5511    0.1827    3.8093 H   0  0  0  0  0  0  0  0  0  0  0  0
   -0.7401    0.2287    2.6036 H   0  0  0  0  0  0  0  0  0  0  0  0
  1  2  1  0
  2  3  1  6
  2  4  1  0
  4  5  1  0
  2  6  1  0
  1  7  1  0
  1  8  1  0
  1  9  1  0
  4 10  1  0
  4 11  1  0
M  END
>  <_TriposChargeType>  (297) 
USER_CHARGES

>  <solvdG>  (297) 
-1.27

>  <fdG>  (297) 
-0.27

>  <fname>  (297) 
mobley_4699732

>  <cname>  (297) 
 1,2-dichloropropane

>  <dataset>  (297) 
FreeSolv

$$$$
(1R,2S)-1,2-dimethylcyclohexane
     RDKit          3D

 24 24  0  0  0  0  0  0  0  0999 V2000
    3.4435   -1.0419    2.0543 C   0  0  0  0  0  0  0  0  0  0  0  0
    2.0172   -1.4136    2.4777 C   0  0  2  0  0  0  0  0  0  0  0  0
    2.0555   -2.4522    2.8339 H   0  0  0  0  0  0  0  0  0  0  0  0
    1.0623   -1.3797    1.2712 C   0  0  0  0  0  0  0  0  0  0  0  0
    0.7402    0.0391    0.8075 C   0  0  0  0  0  0  0  0  0  0  0  0
    0.2013    0.8940    1.9491 C   0  0  0  0  0  0  0  0  0  0  0  0
    1.1337    0.8902    3.1576 C   0  0  0  0  0  0  0  0  0  0  0  0
    1.4552   -0.5381    3.6246 C   0  0  2  0  0  0  0  0  0  0  0  0
    0.5091   -0.9982    3.9443 H   0  0  0  0  0  0  0  0  0  0  0  0
    2.3663   -0.5074    4.8525 C   0  0  0  0  0  0  0  0  0  0  0  0
    3.4791   -0.0123    1.6860 H   0  0  0  0  0  0  0  0  0  0  0  0
    4.1309   -1.1289    2.9010 H   0  0  0  0  0  0  0  0  0  0  0  0
    3.7929   -1.7050    1.2572 H   0  0  0  0  0  0  0  0  0  0  0  0
    1.4835   -1.9523    0.4364 H   0  0  0  0  0  0  0  0  0  0  0  0
    0.1255   -1.8809    1.5481 H   0  0  0  0  0  0  0  0  0  0  0  0
    1.6374    0.5087    0.3877 H   0  0  0  0  0  0  0  0  0  0  0  0
    0.0001   -0.0000   -0.0000 H   0  0  0  0  0  0  0  0  0  0  0  0
    0.0526    1.9226    1.6014 H   0  0  0  0  0  0  0  0  0  0  0  0
   -0.7834    0.5160    2.2509 H   0  0  0  0  0  0  0  0  0  0  0  0
    2.0571    1.4266    2.9073 H   0  0  0  0  0  0  0  0  0  0  0  0
    0.6604    1.4497    3.9738 H   0  0  0  0  0  0  0  0  0  0  0  0
    2.5858   -1.5240    5.1723 H   0  0  0  0  0  0  0  0  0  0  0  0
    1.8720    0.0243    5.6630 H   0  0  0  0  0  0  0  0  0  0  0  0
    3.2970   -0.0003    4.6063 H   0  0  0  0  0  0  0  0  0  0  0  0
  1  2  1  0
  2  3  1  1
  2  8  1  0
  2  4  1  0
  4  5  1  0
  5  6  1  0
  6  7  1  0
  7  8  1  0
  8  9  1  1
  8 10  1  0
  1 11  1  0
  1 12  1  0
  1 13  1  0
  4 14  1  0
  4 15  1  0
  5 16  1  0
  5 17  1  0
  6 18  1  0
  6 19  1  0
  7 20  1  0
  7 21  1  0
 10 22  1  0
 10 23  1  0
 10 24  1  0
M  END
>  <_TriposChargeType>  (298) 
USER_CHARGES

>  <solvdG>  (298) 
1.58

>  <fdG>  (298) 
1.69

>  <fname>  (298) 
mobley_4715906

>  <cname>  (298) 
 1,2-dimethylcyclohexane

>  <dataset>  (298) 
FreeSolv

$$$$
1-iodoheptane
     RDKit          3D

 23 22  0  0  0  0  0  0  0  0999 V2000
   -2.0823   -3.4991    0.1638 C   0  0  0  0  0  0  0  0  0  0  0  0
   -0.8646   -2.6051    0.3406 C   0  0  0  0  0  0  0  0  0  0  0  0
   -1.0579   -1.1921   -0.2142 C   0  0  0  0  0  0  0  0  0  0  0  0
    0.1697   -0.2964   -0.0340 C   0  0  0  0  0  0  0  0  0  0  0  0
   -0.0768    1.1021   -0.6048 C   0  0  0  0  0  0  0  0  0  0  0  0
    1.1492    2.0006   -0.4262 C   0  0  0  0  0  0  0  0  0  0  0  0
    0.8981    3.3954   -0.9976 C   0  0  0  0  0  0  0  0  0  0  0  0
    2.6195    4.6375   -0.7403 I   0  0  0  0  0  0  0  0  0  0  0  0
   -1.9083   -4.4992    0.5711 H   0  0  0  0  0  0  0  0  0  0  0  0
   -2.9599   -3.0708    0.6580 H   0  0  0  0  0  0  0  0  0  0  0  0
   -2.3139   -3.6112   -0.9003 H   0  0  0  0  0  0  0  0  0  0  0  0
   -0.0156   -3.0676   -0.1769 H   0  0  0  0  0  0  0  0  0  0  0  0
   -0.5992   -2.5560    1.4031 H   0  0  0  0  0  0  0  0  0  0  0  0
   -1.9292   -0.7264    0.2621 H   0  0  0  0  0  0  0  0  0  0  0  0
   -1.2886   -1.2732   -1.2835 H   0  0  0  0  0  0  0  0  0  0  0  0
    1.0330   -0.7505   -0.5352 H   0  0  0  0  0  0  0  0  0  0  0  0
    0.4187   -0.2101    1.0297 H   0  0  0  0  0  0  0  0  0  0  0  0
   -0.9407    1.5556   -0.1036 H   0  0  0  0  0  0  0  0  0  0  0  0
   -0.3237    1.0261   -1.6708 H   0  0  0  0  0  0  0  0  0  0  0  0
    2.0125    1.5411   -0.9239 H   0  0  0  0  0  0  0  0  0  0  0  0
    1.3958    2.0713    0.6406 H   0  0  0  0  0  0  0  0  0  0  0  0
    0.0398    3.8577   -0.4975 H   0  0  0  0  0  0  0  0  0  0  0  0
    0.6569    3.3269   -2.0643 H   0  0  0  0  0  0  0  0  0  0  0  0
  1  2  1  0
  2  3  1  0
  3  4  1  0
  4  5  1  0
  5  6  1  0
  6  7  1  0
  7  8  1  0
  1  9  1  0
  1 10  1  0
  1 11  1  0
  2 12  1  0
  2 13  1  0
  3 14  1  0
  3 15  1  0
  4 16  1  0
  4 17  1  0
  5 18  1  0
  5 19  1  0
  6 20  1  0
  6 21  1  0
  7 22  1  0
  7 23  1  0
M  END
>  <_TriposChargeType>  (299) 
USER_CHARGES

>  <solvdG>  (299) 
0.27

>  <fdG>  (299) 
0.23

>  <fname>  (299) 
mobley_4759887

>  <cname>  (299) 
 1-iodoheptane

>  <dataset>  (299) 
FreeSolv

$$$$
hept-1-ene
     RDKit          3D

 21 20  0  0  0  0  0  0  0  0999 V2000
   -5.9537    0.4469   -2.6215 C   0  0  0  0  0  0  0  0  0  0  0  0
   -5.7469   -0.4650   -1.4227 C   0  0  0  0  0  0  0  0  0  0  0  0
   -4.5293   -0.0416   -0.6001 C   0  0  0  0  0  0  0  0  0  0  0  0
   -4.3270   -0.9644    0.6057 C   0  0  0  0  0  0  0  0  0  0  0  0
   -3.1162   -0.5779    1.4610 C   0  0  0  0  0  0  0  0  0  0  0  0
   -2.9185   -1.4823    2.6419 C   0  0  0  0  0  0  0  0  0  0  0  0
   -1.8164   -2.2114    2.8494 C   0  0  0  0  0  0  0  0  0  0  0  0
   -6.8269    0.1368   -3.2045 H   0  0  0  0  0  0  0  0  0  0  0  0
   -5.0789    0.4345   -3.2794 H   0  0  0  0  0  0  0  0  0  0  0  0
   -6.1151    1.4776   -2.2904 H   0  0  0  0  0  0  0  0  0  0  0  0
   -5.6193   -1.4960   -1.7727 H   0  0  0  0  0  0  0  0  0  0  0  0
   -6.6460   -0.4437   -0.7960 H   0  0  0  0  0  0  0  0  0  0  0  0
   -3.6391   -0.0572   -1.2396 H   0  0  0  0  0  0  0  0  0  0  0  0
   -4.6619    0.9906   -0.2538 H   0  0  0  0  0  0  0  0  0  0  0  0
   -5.2216   -0.9269    1.2398 H   0  0  0  0  0  0  0  0  0  0  0  0
   -4.2260   -2.0023    0.2640 H   0  0  0  0  0  0  0  0  0  0  0  0
   -3.2650    0.4411    1.8384 H   0  0  0  0  0  0  0  0  0  0  0  0
   -2.2175   -0.5494    0.8326 H   0  0  0  0  0  0  0  0  0  0  0  0
   -3.7218   -1.5323    3.3724 H   0  0  0  0  0  0  0  0  0  0  0  0
   -1.7156   -2.8526    3.7180 H   0  0  0  0  0  0  0  0  0  0  0  0
   -0.9922   -2.1734    2.1456 H   0  0  0  0  0  0  0  0  0  0  0  0
  1  2  1  0
  2  3  1  0
  3  4  1  0
  4  5  1  0
  5  6  1  0
  6  7  2  3
  1  8  1  0
  1  9  1  0
  1 10  1  0
  2 11  1  0
  2 12  1  0
  3 13  1  0
  3 14  1  0
  4 15  1  0
  4 16  1  0
  5 17  1  0
  5 18  1  0
  6 19  1  0
  7 20  1  0
  7 21  1  0
M  END
>  <_TriposChargeType>  (300) 
USER_CHARGES

>  <solvdG>  (300) 
1.66

>  <fdG>  (300) 
2.76

>  <fname>  (300) 
mobley_4762983

>  <cname>  (300) 
 hept-1-ene

>  <dataset>  (300) 
FreeSolv

$$$$
2,4-dimethylphenol
     RDKit          3D

 19 19  0  0  0  0  0  0  0  0999 V2000
    1.9320   -1.0138   -1.6029 C   0  0  0  0  0  0  0  0  0  0  0  0
    1.8851   -1.0363   -0.1124 C   0  0  0  0  0  0  0  0  0  0  0  0
    2.9210   -1.6309    0.6081 C   0  0  0  0  0  0  0  0  0  0  0  0
    2.8783   -1.6520    2.0022 C   0  0  0  0  0  0  0  0  0  0  0  0
    1.7997   -1.0786    2.6757 C   0  0  0  0  0  0  0  0  0  0  0  0
    0.7638   -0.4841    1.9551 C   0  0  0  0  0  0  0  0  0  0  0  0
    0.8066   -0.4630    0.5610 C   0  0  0  0  0  0  0  0  0  0  0  0
   -0.3986    0.1336    2.6596 C   0  0  0  0  0  0  0  0  0  0  0  0
    1.7729   -1.1097    4.0375 O   0  0  0  0  0  0  0  0  0  0  0  0
    2.4403   -0.1083   -1.9479 H   0  0  0  0  0  0  0  0  0  0  0  0
    2.4648   -1.8884   -1.9906 H   0  0  0  0  0  0  0  0  0  0  0  0
    0.9221   -1.0362   -2.0261 H   0  0  0  0  0  0  0  0  0  0  0  0
    3.7650   -2.0798    0.0914 H   0  0  0  0  0  0  0  0  0  0  0  0
    3.6894   -2.1156    2.5572 H   0  0  0  0  0  0  0  0  0  0  0  0
   -0.0017   -0.0007   -0.0009 H   0  0  0  0  0  0  0  0  0  0  0  0
   -0.1985    1.1911    2.8684 H   0  0  0  0  0  0  0  0  0  0  0  0
   -1.3117    0.0636    2.0553 H   0  0  0  0  0  0  0  0  0  0  0  0
   -0.6044   -0.3771    3.6087 H   0  0  0  0  0  0  0  0  0  0  0  0
    2.5630   -1.5578    4.3780 H   0  0  0  0  0  0  0  0  0  0  0  0
  1  2  1  0
  2  7  2  0
  2  3  1  0
  3  4  2  0
  4  5  1  0
  5  6  2  0
  6  7  1  0
  6  8  1  0
  5  9  1  0
  1 10  1  0
  1 11  1  0
  1 12  1  0
  3 13  1  0
  4 14  1  0
  7 15  1  0
  8 16  1  0
  8 17  1  0
  8 18  1  0
  9 19  1  0
M  END
>  <_TriposChargeType>  (301) 
USER_CHARGES

>  <solvdG>  (301) 
-6.01

>  <fdG>  (301) 
-4.98

>  <fname>  (301) 
mobley_4780078

>  <cname>  (301) 
 2,4-dimethylphenol

>  <dataset>  (301) 
FreeSolv

$$$$
pentanoic acid
     RDKit          3D

 17 16  0  0  0  0  0  0  0  0999 V2000
   -2.8895   -0.8643    1.4434 C   0  0  0  0  0  0  0  0  0  0  0  0
   -1.4435   -0.4115    1.5738 C   0  0  0  0  0  0  0  0  0  0  0  0
   -0.6037   -1.3074    2.4860 C   0  0  0  0  0  0  0  0  0  0  0  0
    0.8489   -0.8488    2.6143 C   0  0  0  0  0  0  0  0  0  0  0  0
    1.6476   -1.7566    3.5220 C   0  0  0  0  0  0  0  0  0  0  0  0
    1.2145   -2.7447    4.0982 O   0  0  0  0  0  0  0  0  0  0  0  0
    2.9384   -1.3446    3.6245 O   0  0  0  0  0  0  0  0  0  0  0  0
   -3.4369   -0.1861    0.7809 H   0  0  0  0  0  0  0  0  0  0  0  0
   -2.9584   -1.8695    1.0177 H   0  0  0  0  0  0  0  0  0  0  0  0
   -3.3905   -0.8646    2.4166 H   0  0  0  0  0  0  0  0  0  0  0  0
   -1.4328    0.6065    1.9813 H   0  0  0  0  0  0  0  0  0  0  0  0
   -0.9866   -0.3589    0.5787 H   0  0  0  0  0  0  0  0  0  0  0  0
   -1.0685   -1.3182    3.4801 H   0  0  0  0  0  0  0  0  0  0  0  0
   -0.6356   -2.3414    2.1203 H   0  0  0  0  0  0  0  0  0  0  0  0
    0.8782    0.1635    3.0324 H   0  0  0  0  0  0  0  0  0  0  0  0
    1.3340   -0.8485    1.6329 H   0  0  0  0  0  0  0  0  0  0  0  0
    3.1569   -0.5370    3.1117 H   0  0  0  0  0  0  0  0  0  0  0  0
  1  2  1  0
  2  3  1  0
  3  4  1  0
  4  5  1  0
  5  6  2  0
  5  7  1  0
  1  8  1  0
  1  9  1  0
  1 10  1  0
  2 11  1  0
  2 12  1  0
  3 13  1  0
  3 14  1  0
  4 15  1  0
  4 16  1  0
  7 17  1  0
M  END
>  <_TriposChargeType>  (302) 
USER_CHARGES

>  <solvdG>  (302) 
-6.16

>  <fdG>  (302) 
-9.05

>  <fname>  (302) 
mobley_4792268

>  <cname>  (302) 
 pentanoic acid

>  <dataset>  (302) 
FreeSolv

$$$$
1,2,3,4,5,6-hexachlorobenzene
     RDKit          3D

 12 12  0  0  0  0  0  0  0  0999 V2000
    1.8851   -1.0363   -0.1124 C   0  0  0  0  0  0  0  0  0  0  0  0
    2.9210   -1.6309    0.6081 C   0  0  0  0  0  0  0  0  0  0  0  0
    2.8783   -1.6520    2.0022 C   0  0  0  0  0  0  0  0  0  0  0  0
    1.7997   -1.0786    2.6757 C   0  0  0  0  0  0  0  0  0  0  0  0
    0.7638   -0.4841    1.9551 C   0  0  0  0  0  0  0  0  0  0  0  0
    0.8066   -0.4630    0.5610 C   0  0  0  0  0  0  0  0  0  0  0  0
   -0.4882    0.2802   -0.3397 Cl  0  0  0  0  0  0  0  0  0  0  0  0
   -0.5847    0.2322    2.7971 Cl  0  0  0  0  0  0  0  0  0  0  0  0
    1.7463   -1.1045    4.4183 Cl  0  0  0  0  0  0  0  0  0  0  0  0
    4.1730   -2.3955    2.9028 Cl  0  0  0  0  0  0  0  0  0  0  0  0
    4.2693   -2.3475   -0.2338 Cl  0  0  0  0  0  0  0  0  0  0  0  0
    1.9387   -1.0098   -1.8552 Cl  0  0  0  0  0  0  0  0  0  0  0  0
  1  6  2  0
  1  2  1  0
  2  3  2  0
  3  4  1  0
  4  5  2  0
  5  6  1  0
  6  7  1  0
  5  8  1  0
  4  9  1  0
  3 10  1  0
  2 11  1  0
  1 12  1  0
M  END
>  <_TriposChargeType>  (303) 
USER_CHARGES

>  <solvdG>  (303) 
-2.33

>  <fdG>  (303) 
0.38

>  <fname>  (303) 
mobley_4845722

>  <cname>  (303) 
 hexachlorobenzene

>  <dataset>  (303) 
FreeSolv

$$$$
methanesulfonyl chloride
     RDKit          3D

  8  7  0  0  0  0  0  0  0  0999 V2000
    0.7074   -0.5796    0.5951 C   0  0  0  0  0  0  0  0  0  0  0  0
    2.3350   -0.0475    0.1959 S   0  0  0  0  0  6  0  0  0  0  0  0
    3.0013    0.3940    1.4088 O   0  0  0  0  0  0  0  0  0  0  0  0
    2.2829    0.7935   -0.9873 O   0  0  0  0  0  0  0  0  0  0  0  0
    3.3748   -1.7137   -0.3936 Cl  0  0  0  0  0  0  0  0  0  0  0  0
    0.2177   -0.9084   -0.3230 H   0  0  0  0  0  0  0  0  0  0  0  0
    0.7792   -1.4037    1.3064 H   0  0  0  0  0  0  0  0  0  0  0  0
    0.1689    0.2607    1.0359 H   0  0  0  0  0  0  0  0  0  0  0  0
  1  2  1  0
  2  3  2  0
  2  4  2  0
  2  5  1  0
  1  6  1  0
  1  7  1  0
  1  8  1  0
M  END
>  <_TriposChargeType>  (304) 
USER_CHARGES

>  <solvdG>  (304) 
-4.87

>  <fdG>  (304) 
-6.22

>  <fname>  (304) 
mobley_4850657

>  <cname>  (304) 
 methanesulfonyl chloride

>  <dataset>  (304) 
FreeSolv

$$$$
2,6-dimethoxyphenol
     RDKit          3D

 21 21  0  0  0  0  0  0  0  0999 V2000
    1.3515   -2.1280   -2.1493 C   0  0  0  0  0  0  0  0  0  0  0  0
    1.9393   -1.0225   -1.4736 O   0  0  0  0  0  0  0  0  0  0  0  0
    1.8851   -1.0363   -0.1124 C   0  0  0  0  0  0  0  0  0  0  0  0
    2.9210   -1.6309    0.6081 C   0  0  0  0  0  0  0  0  0  0  0  0
    2.8783   -1.6520    2.0022 C   0  0  0  0  0  0  0  0  0  0  0  0
    1.7997   -1.0786    2.6757 C   0  0  0  0  0  0  0  0  0  0  0  0
    0.7638   -0.4841    1.9551 C   0  0  0  0  0  0  0  0  0  0  0  0
    0.8066   -0.4630    0.5610 C   0  0  0  0  0  0  0  0  0  0  0  0
   -0.2060    0.1181   -0.1433 O   0  0  0  0  0  0  0  0  0  0  0  0
   -0.2837    0.0722    2.6252 O   0  0  0  0  0  0  0  0  0  0  0  0
   -0.2495    0.0077    4.0496 C   0  0  0  0  0  0  0  0  0  0  0  0
    1.4610   -1.9966   -3.2285 H   0  0  0  0  0  0  0  0  0  0  0  0
    0.2931   -2.1966   -1.8854 H   0  0  0  0  0  0  0  0  0  0  0  0
    1.8615   -3.0442   -1.8425 H   0  0  0  0  0  0  0  0  0  0  0  0
    3.7641   -2.0793    0.0897 H   0  0  0  0  0  0  0  0  0  0  0  0
    3.6848   -2.1148    2.5633 H   0  0  0  0  0  0  0  0  0  0  0  0
    1.7726   -1.0985    3.7618 H   0  0  0  0  0  0  0  0  0  0  0  0
   -0.8765    0.4685    0.4632 H   0  0  0  0  0  0  0  0  0  0  0  0
   -1.1426    0.4876    4.4479 H   0  0  0  0  0  0  0  0  0  0  0  0
    0.6479    0.5122    4.4062 H   0  0  0  0  0  0  0  0  0  0  0  0
   -0.2284   -1.0399    4.3471 H   0  0  0  0  0  0  0  0  0  0  0  0
  1  2  1  0
  2  3  1  0
  3  8  2  0
  3  4  1  0
  4  5  2  0
  5  6  1  0
  6  7  2  0
  7  8  1  0
  8  9  1  0
  7 10  1  0
 10 11  1  0
  1 12  1  0
  1 13  1  0
  1 14  1  0
  4 15  1  0
  5 16  1  0
  6 17  1  0
  9 18  1  0
 11 19  1  0
 11 20  1  0
 11 21  1  0
M  END
>  <_TriposChargeType>  (305) 
USER_CHARGES

>  <solvdG>  (305) 
-6.96

>  <fdG>  (305) 
-7.39

>  <fname>  (305) 
mobley_486214

>  <cname>  (305) 
 2,6-dimethoxyphenol

>  <dataset>  (305) 
FreeSolv

$$$$
aniline
     RDKit          3D

 14 14  0  0  0  0  0  0  0  0999 V2000
    1.8851   -1.0363   -0.1124 C   0  0  0  0  0  0  0  0  0  0  0  0
    2.9210   -1.6309    0.6081 C   0  0  0  0  0  0  0  0  0  0  0  0
    2.8783   -1.6520    2.0022 C   0  0  0  0  0  0  0  0  0  0  0  0
    1.7997   -1.0786    2.6757 C   0  0  0  0  0  0  0  0  0  0  0  0
    0.7638   -0.4841    1.9551 C   0  0  0  0  0  0  0  0  0  0  0  0
    0.8066   -0.4630    0.5610 C   0  0  0  0  0  0  0  0  0  0  0  0
    1.7568   -1.1003    4.0852 N   0  0  0  0  0  0  0  0  0  0  0  0
    1.9184   -1.0196   -1.1980 H   0  0  0  0  0  0  0  0  0  0  0  0
    3.7609   -2.0773    0.0835 H   0  0  0  0  0  0  0  0  0  0  0  0
    3.6911   -2.1183    2.5532 H   0  0  0  0  0  0  0  0  0  0  0  0
   -0.0810   -0.0346    2.4703 H   0  0  0  0  0  0  0  0  0  0  0  0
    0.0003   -0.0001   -0.0001 H   0  0  0  0  0  0  0  0  0  0  0  0
    1.0022   -0.6448    4.5574 H   0  0  0  0  0  0  0  0  0  0  0  0
    2.5279   -1.4875    4.5907 H   0  0  0  0  0  0  0  0  0  0  0  0
  1  6  2  0
  1  2  1  0
  2  3  2  0
  3  4  1  0
  4  5  2  0
  5  6  1  0
  4  7  1  0
  1  8  1  0
  2  9  1  0
  3 10  1  0
  5 11  1  0
  6 12  1  0
  7 13  1  0
  7 14  1  0
M  END
>  <_TriposChargeType>  (306) 
USER_CHARGES

>  <solvdG>  (306) 
-5.49

>  <fdG>  (306) 
-5.54

>  <fname>  (306) 
mobley_4883284

>  <cname>  (306) 
 aniline

>  <dataset>  (306) 
FreeSolv

$$$$
3-ethylpyridine
     RDKit          3D

 17 17  0  0  0  0  0  0  0  0999 V2000
    2.6688    0.9365    4.5561 C   0  0  0  0  0  0  0  0  0  0  0  0
    2.8852   -0.2665    3.6509 C   0  0  0  0  0  0  0  0  0  0  0  0
    1.6520   -0.6227    2.8997 C   0  0  0  0  0  0  0  0  0  0  0  0
    1.3879   -0.0684    1.6522 C   0  0  0  0  0  0  0  0  0  0  0  0
    0.2265   -0.4197    0.9733 C   0  0  0  0  0  0  0  0  0  0  0  0
   -0.6317   -1.3224    1.5803 C   0  0  0  0  0  0  0  0  0  0  0  0
   -0.4092   -1.8816    2.7908 N   0  0  0  0  0  0  0  0  0  0  0  0
    0.7299   -1.5161    3.4206 C   0  0  0  0  0  0  0  0  0  0  0  0
    3.5822    1.1907    5.1045 H   0  0  0  0  0  0  0  0  0  0  0  0
    1.8827    0.7232    5.2871 H   0  0  0  0  0  0  0  0  0  0  0  0
    2.3665    1.8178    3.9802 H   0  0  0  0  0  0  0  0  0  0  0  0
    3.2146   -1.1252    4.2485 H   0  0  0  0  0  0  0  0  0  0  0  0
    3.6996   -0.0581    2.9463 H   0  0  0  0  0  0  0  0  0  0  0  0
    2.0808    0.6373    1.2020 H   0  0  0  0  0  0  0  0  0  0  0  0
   -0.0000   -0.0001   -0.0002 H   0  0  0  0  0  0  0  0  0  0  0  0
   -1.5507   -1.6289    1.0916 H   0  0  0  0  0  0  0  0  0  0  0  0
    0.8820   -1.9806    4.3900 H   0  0  0  0  0  0  0  0  0  0  0  0
  1  2  1  0
  2  3  1  0
  3  8  2  0
  3  4  1  0
  4  5  2  0
  5  6  1  0
  6  7  2  0
  7  8  1  0
  1  9  1  0
  1 10  1  0
  1 11  1  0
  2 12  1  0
  2 13  1  0
  4 14  1  0
  5 15  1  0
  6 16  1  0
  8 17  1  0
M  END
>  <_TriposChargeType>  (307) 
USER_CHARGES

>  <solvdG>  (307) 
-4.59

>  <fdG>  (307) 
-2.96

>  <fname>  (307) 
mobley_4884177

>  <cname>  (307) 
 3-ethylpyridine

>  <dataset>  (307) 
FreeSolv

$$$$
pentanenitrile
     RDKit          3D

 15 14  0  0  0  0  0  0  0  0999 V2000
    0.1082    0.9366    0.5559 C   0  0  0  0  0  0  0  0  0  0  0  0
    0.2523    0.6526    2.0425 C   0  0  0  0  0  0  0  0  0  0  0  0
    0.4020    1.9434    2.8476 C   0  0  0  0  0  0  0  0  0  0  0  0
    0.5466    1.6542    4.3415 C   0  0  0  0  0  0  0  0  0  0  0  0
    0.6900    2.8984    5.1090 C   0  0  0  0  0  0  0  0  0  0  0  0
    0.8025    3.8802    5.7171 N   0  0  0  0  0  0  0  0  0  0  0  0
    0.0017    0.0069   -0.0123 H   0  0  0  0  0  0  0  0  0  0  0  0
   -0.7791    1.5504    0.3717 H   0  0  0  0  0  0  0  0  0  0  0  0
    0.9803    1.4761    0.1729 H   0  0  0  0  0  0  0  0  0  0  0  0
   -0.6267    0.0970    2.3895 H   0  0  0  0  0  0  0  0  0  0  0  0
    1.1262    0.0104    2.2025 H   0  0  0  0  0  0  0  0  0  0  0  0
   -0.4709    2.5868    2.6771 H   0  0  0  0  0  0  0  0  0  0  0  0
    1.2780    2.5004    2.4909 H   0  0  0  0  0  0  0  0  0  0  0  0
   -0.3302    1.1031    4.7006 H   0  0  0  0  0  0  0  0  0  0  0  0
    1.4209    1.0160    4.5142 H   0  0  0  0  0  0  0  0  0  0  0  0
  1  2  1  0
  2  3  1  0
  3  4  1  0
  4  5  1  0
  5  6  3  0
  1  7  1  0
  1  8  1  0
  1  9  1  0
  2 10  1  0
  2 11  1  0
  3 12  1  0
  3 13  1  0
  4 14  1  0
  4 15  1  0
M  END
>  <_TriposChargeType>  (308) 
USER_CHARGES

>  <solvdG>  (308) 
-3.52

>  <fdG>  (308) 
-2.15

>  <fname>  (308) 
mobley_4893032

>  <cname>  (308) 
 pentanenitrile

>  <dataset>  (308) 
FreeSolv

$$$$
isopentyl formate
     RDKit          3D

 20 19  0  0  0  0  0  0  0  0999 V2000
    0.1986   -1.0772    0.0118 C   0  0  0  0  0  0  0  0  0  0  0  0
   -0.6860   -1.8165   -0.9949 C   0  0  0  0  0  0  0  0  0  0  0  0
   -2.1575   -1.6366   -0.6192 C   0  0  0  0  0  0  0  0  0  0  0  0
   -0.3808   -1.3238   -2.4187 C   0  0  0  0  0  0  0  0  0  0  0  0
    1.0651   -1.5436   -2.8473 C   0  0  0  0  0  0  0  0  0  0  0  0
    1.2276   -1.0522   -4.1720 O   0  0  0  0  0  0  0  0  0  0  0  0
    2.4770   -1.1790   -4.6985 C   0  0  0  0  0  0  0  0  0  0  0  0
    3.4606   -1.6636   -4.1612 O   0  0  0  0  0  0  0  0  0  0  0  0
    1.2578   -1.1944   -0.2408 H   0  0  0  0  0  0  0  0  0  0  0  0
    0.0483   -1.4576    1.0280 H   0  0  0  0  0  0  0  0  0  0  0  0
   -0.0261   -0.0053    0.0140 H   0  0  0  0  0  0  0  0  0  0  0  0
   -0.4442   -2.8850   -0.9331 H   0  0  0  0  0  0  0  0  0  0  0  0
   -2.8139   -2.1568   -1.3249 H   0  0  0  0  0  0  0  0  0  0  0  0
   -2.4319   -0.5761   -0.6219 H   0  0  0  0  0  0  0  0  0  0  0  0
   -2.3623   -2.0208    0.3846 H   0  0  0  0  0  0  0  0  0  0  0  0
   -0.6054   -0.2513   -2.4915 H   0  0  0  0  0  0  0  0  0  0  0  0
   -1.0486   -1.8096   -3.1423 H   0  0  0  0  0  0  0  0  0  0  0  0
    1.7537   -1.0033   -2.1901 H   0  0  0  0  0  0  0  0  0  0  0  0
    1.3258   -2.6057   -2.8462 H   0  0  0  0  0  0  0  0  0  0  0  0
    2.4752   -0.7665   -5.7193 H   0  0  0  0  0  0  0  0  0  0  0  0
  1  2  1  0
  2  3  1  0
  2  4  1  0
  4  5  1  0
  5  6  1  0
  6  7  1  0
  7  8  2  0
  1  9  1  0
  1 10  1  0
  1 11  1  0
  2 12  1  0
  3 13  1  0
  3 14  1  0
  3 15  1  0
  4 16  1  0
  4 17  1  0
  5 18  1  0
  5 19  1  0
  7 20  1  0
M  END
>  <_TriposChargeType>  (309) 
USER_CHARGES

>  <solvdG>  (309) 
-2.13

>  <fdG>  (309) 
-3.41

>  <fname>  (309) 
mobley_4924862

>  <cname>  (309) 
 isopentyl formate

>  <dataset>  (309) 
FreeSolv

$$$$
hept-1-yne
     RDKit          3D

 19 18  0  0  0  0  0  0  0  0999 V2000
   -0.5087   -0.7852   -2.9688 C   0  0  0  0  0  0  0  0  0  0  0  0
   -0.4724    0.1755   -1.7910 C   0  0  0  0  0  0  0  0  0  0  0  0
    0.0088   -0.5187   -0.5171 C   0  0  0  0  0  0  0  0  0  0  0  0
    0.0440    0.4506    0.6659 C   0  0  0  0  0  0  0  0  0  0  0  0
    0.5253   -0.2434    1.9400 C   0  0  0  0  0  0  0  0  0  0  0  0
    0.5574    0.6915    3.0731 C   0  0  0  0  0  0  0  0  0  0  0  0
    0.5857    1.4526    4.0012 C   0  0  0  0  0  0  0  0  0  0  0  0
   -0.8555   -0.2684   -3.8692 H   0  0  0  0  0  0  0  0  0  0  0  0
   -1.1888   -1.6203   -2.7732 H   0  0  0  0  0  0  0  0  0  0  0  0
    0.4865   -1.1928   -3.1733 H   0  0  0  0  0  0  0  0  0  0  0  0
    0.1909    1.0144   -2.0316 H   0  0  0  0  0  0  0  0  0  0  0  0
   -1.4752    0.5893   -1.6336 H   0  0  0  0  0  0  0  0  0  0  0  0
    1.0106   -0.9343   -0.6813 H   0  0  0  0  0  0  0  0  0  0  0  0
   -0.6558   -1.3594   -0.2835 H   0  0  0  0  0  0  0  0  0  0  0  0
   -0.9571    0.8705    0.8274 H   0  0  0  0  0  0  0  0  0  0  0  0
    0.7055    1.2943    0.4305 H   0  0  0  0  0  0  0  0  0  0  0  0
    1.5273   -0.6589    1.7808 H   0  0  0  0  0  0  0  0  0  0  0  0
   -0.1369   -1.0839    2.1783 H   0  0  0  0  0  0  0  0  0  0  0  0
    0.6113    2.1275    4.8246 H   0  0  0  0  0  0  0  0  0  0  0  0
  1  2  1  0
  2  3  1  0
  3  4  1  0
  4  5  1  0
  5  6  1  0
  6  7  3  0
  1  8  1  0
  1  9  1  0
  1 10  1  0
  2 11  1  0
  2 12  1  0
  3 13  1  0
  3 14  1  0
  4 15  1  0
  4 16  1  0
  5 17  1  0
  5 18  1  0
  7 19  1  0
M  END
>  <_TriposChargeType>  (310) 
USER_CHARGES

>  <solvdG>  (310) 
0.6

>  <fdG>  (310) 
0.64

>  <fname>  (310) 
mobley_49274

>  <cname>  (310) 
 hept-1-yne

>  <dataset>  (310) 
FreeSolv

$$$$
diethoxymethoxybenzene
     RDKit          3D

 30 30  0  0  0  0  0  0  0  0999 V2000
    1.8748    0.7025    0.6558 C   0  0  0  0  0  0  0  0  0  0  0  0
    0.3668    0.6215    0.7617 C   0  0  0  0  0  0  0  0  0  0  0  0
   -0.1706    1.9379    0.7371 O   0  0  0  0  0  0  0  0  0  0  0  0
   -1.6086    1.9688    0.8331 C   0  0  0  0  0  0  0  0  0  0  0  0
   -2.2391    1.2639   -0.2461 O   0  0  0  0  0  0  0  0  0  0  0  0
   -2.2962    2.0351   -1.4391 C   0  0  0  0  0  0  0  0  0  0  0  0
   -2.9727    1.2194   -2.5192 C   0  0  0  0  0  0  0  0  0  0  0  0
   -2.0314    1.4740    2.1154 O   0  0  0  0  0  0  0  0  0  0  0  0
   -3.3712    1.4281    2.3908 C   0  0  0  0  0  0  0  0  0  0  0  0
   -4.2350    2.3556    1.8082 C   0  0  0  0  0  0  0  0  0  0  0  0
   -5.6005    2.3088    2.0886 C   0  0  0  0  0  0  0  0  0  0  0  0
   -6.1023    1.3346    2.9516 C   0  0  0  0  0  0  0  0  0  0  0  0
   -5.2385    0.4071    3.5342 C   0  0  0  0  0  0  0  0  0  0  0  0
   -3.8729    0.4539    3.2538 C   0  0  0  0  0  0  0  0  0  0  0  0
    2.3212   -0.2957    0.6717 H   0  0  0  0  0  0  0  0  0  0  0  0
    2.1702    1.2071   -0.2700 H   0  0  0  0  0  0  0  0  0  0  0  0
    2.2888    1.2879    1.4834 H   0  0  0  0  0  0  0  0  0  0  0  0
    0.0733    0.1385    1.6984 H   0  0  0  0  0  0  0  0  0  0  0  0
   -0.0473    0.0560   -0.0784 H   0  0  0  0  0  0  0  0  0  0  0  0
   -1.8654    3.0342    0.7774 H   0  0  0  0  0  0  0  0  0  0  0  0
   -2.8595    2.9504   -1.2380 H   0  0  0  0  0  0  0  0  0  0  0  0
   -1.2771    2.2975   -1.7358 H   0  0  0  0  0  0  0  0  0  0  0  0
   -3.0332    1.7850   -3.4532 H   0  0  0  0  0  0  0  0  0  0  0  0
   -2.4234    0.2903   -2.7034 H   0  0  0  0  0  0  0  0  0  0  0  0
   -3.9848    0.9353   -2.2122 H   0  0  0  0  0  0  0  0  0  0  0  0
   -3.8501    3.1163    1.1345 H   0  0  0  0  0  0  0  0  0  0  0  0
   -6.2734    3.0303    1.6344 H   0  0  0  0  0  0  0  0  0  0  0  0
   -7.1657    1.2969    3.1688 H   0  0  0  0  0  0  0  0  0  0  0  0
   -5.6297   -0.3519    4.2057 H   0  0  0  0  0  0  0  0  0  0  0  0
   -3.2050   -0.2711    3.7107 H   0  0  0  0  0  0  0  0  0  0  0  0
  1  2  1  0
  2  3  1  0
  3  4  1  0
  4  5  1  0
  5  6  1  0
  6  7  1  0
  4  8  1  0
  8  9  1  0
  9 14  2  0
  9 10  1  0
 10 11  2  0
 11 12  1  0
 12 13  2  0
 13 14  1  0
  1 15  1  0
  1 16  1  0
  1 17  1  0
  2 18  1  0
  2 19  1  0
  4 20  1  0
  6 21  1  0
  6 22  1  0
  7 23  1  0
  7 24  1  0
  7 25  1  0
 10 26  1  0
 11 27  1  0
 12 28  1  0
 13 29  1  0
 14 30  1  0
M  END
>  <_TriposChargeType>  (311) 
USER_CHARGES

>  <solvdG>  (311) 
-5.23

>  <fdG>  (311) 
-5.2

>  <fname>  (311) 
mobley_4934872

>  <cname>  (311) 
 diethoxymethoxybenzene

>  <dataset>  (311) 
FreeSolv

$$$$
2-(2,3-dimethylanilino)benzoic acid
     RDKit          3D

 33 34  0  0  0  0  0  0  0  0999 V2000
    1.9566   -1.0260   -1.6044 C   0  0  0  0  0  0  0  0  0  0  0  0
    1.8851   -1.0363   -0.1124 C   0  0  0  0  0  0  0  0  0  0  0  0
    2.9210   -1.6309    0.6081 C   0  0  0  0  0  0  0  0  0  0  0  0
    2.8783   -1.6520    2.0022 C   0  0  0  0  0  0  0  0  0  0  0  0
    1.7997   -1.0786    2.6757 C   0  0  0  0  0  0  0  0  0  0  0  0
    0.7638   -0.4841    1.9551 C   0  0  0  0  0  0  0  0  0  0  0  0
    0.8066   -0.4630    0.5610 C   0  0  0  0  0  0  0  0  0  0  0  0
   -0.3026    0.1739   -0.2162 C   0  0  0  0  0  0  0  0  0  0  0  0
   -0.3196    0.0899    2.6557 N   0  0  0  0  0  0  0  0  0  0  0  0
   -0.9208   -0.2113    3.8919 C   0  0  0  0  0  0  0  0  0  0  0  0
   -0.9088   -1.5292    4.3488 C   0  0  0  0  0  0  0  0  0  0  0  0
   -1.4993   -1.8488    5.5714 C   0  0  0  0  0  0  0  0  0  0  0  0
   -2.1019   -0.8506    6.3370 C   0  0  0  0  0  0  0  0  0  0  0  0
   -2.1140    0.4672    5.8800 C   0  0  0  0  0  0  0  0  0  0  0  0
   -1.5234    0.7868    4.6574 C   0  0  0  0  0  0  0  0  0  0  0  0
   -1.5534    2.1730    4.2080 C   0  0  0  0  0  0  0  0  0  0  0  0
   -0.7002    2.7107    3.4976 O   0  0  0  0  0  0  0  0  0  0  0  0
   -2.6490    2.8399    4.6603 O   0  0  0  0  0  0  0  0  0  0  0  0
    2.4714   -0.1238   -1.9484 H   0  0  0  0  0  0  0  0  0  0  0  0
    2.4948   -1.9043   -1.9761 H   0  0  0  0  0  0  0  0  0  0  0  0
    0.9538   -1.0509   -2.0440 H   0  0  0  0  0  0  0  0  0  0  0  0
    3.7663   -2.0798    0.0930 H   0  0  0  0  0  0  0  0  0  0  0  0
    3.6856   -2.1146    2.5623 H   0  0  0  0  0  0  0  0  0  0  0  0
    1.7774   -1.1023    3.7623 H   0  0  0  0  0  0  0  0  0  0  0  0
   -0.0853    1.2341   -0.3829 H   0  0  0  0  0  0  0  0  0  0  0  0
   -0.4337   -0.3158   -1.1877 H   0  0  0  0  0  0  0  0  0  0  0  0
   -1.2559    0.0894    0.3180 H   0  0  0  0  0  0  0  0  0  0  0  0
   -0.7469    0.8721    2.1700 H   0  0  0  0  0  0  0  0  0  0  0  0
   -0.4421   -2.3157    3.7612 H   0  0  0  0  0  0  0  0  0  0  0  0
   -1.4887   -2.8746    5.9281 H   0  0  0  0  0  0  0  0  0  0  0  0
   -2.5613   -1.0995    7.2892 H   0  0  0  0  0  0  0  0  0  0  0  0
   -2.5861    1.2362    6.4861 H   0  0  0  0  0  0  0  0  0  0  0  0
   -2.6790    3.7741    4.3623 H   0  0  0  0  0  0  0  0  0  0  0  0
  1  2  1  0
  2  7  2  0
  2  3  1  0
  3  4  2  0
  4  5  1  0
  5  6  2  0
  6  7  1  0
  7  8  1  0
  6  9  1  0
  9 10  1  0
 10 15  1  0
 10 11  2  0
 11 12  1  0
 12 13  2  0
 13 14  1  0
 14 15  2  0
 15 16  1  0
 16 17  2  0
 16 18  1  0
  1 19  1  0
  1 20  1  0
  1 21  1  0
  3 22  1  0
  4 23  1  0
  5 24  1  0
  8 25  1  0
  8 26  1  0
  8 27  1  0
  9 28  1  0
 11 29  1  0
 12 30  1  0
 13 31  1  0
 14 32  1  0
 18 33  1  0
M  END
>  <_TriposChargeType>  (312) 
USER_CHARGES

>  <solvdG>  (312) 
-6.78

>  <fdG>  (312) 
-7.67

>  <fname>  (312) 
mobley_4936555

>  <cname>  (312) 
 2-(2,3-dimethylphenyl)aminobenzoic acid

>  <dataset>  (312) 
FreeSolv

$$$$
acetonyl nitrate
     RDKit          3D

 13 12  0  0  0  0  0  0  0  0999 V2000
   -0.4706    0.2914   -0.9334 C   0  0  0  0  0  0  0  0  0  0  0  0
   -1.7473    1.0396   -0.6554 C   0  0  0  0  0  0  0  0  0  0  0  0
   -1.9074    2.1962   -1.0425 O   0  0  0  0  0  0  0  0  0  0  0  0
   -2.8085    0.2895    0.1212 C   0  0  0  0  0  0  0  0  0  0  0  0
   -3.9499    1.0979    0.3143 O   0  0  0  0  0  0  0  0  0  0  0  0
   -4.9963    0.4564    1.0410 N   0  0  0  0  0  4  0  0  0  0  0  0
   -4.7973   -0.7026    1.4121 O   0  0  0  0  0  0  0  0  0  0  0  0
   -5.9854    1.1725    1.2020 O   0  0  0  0  0  1  0  0  0  0  0  0
    0.2399    0.4584   -0.1190 H   0  0  0  0  0  0  0  0  0  0  0  0
   -0.6814   -0.7784   -1.0045 H   0  0  0  0  0  0  0  0  0  0  0  0
   -0.0304    0.6523   -1.8662 H   0  0  0  0  0  0  0  0  0  0  0  0
   -2.4119   -0.0099    1.0952 H   0  0  0  0  0  0  0  0  0  0  0  0
   -3.1045   -0.5973   -0.4453 H   0  0  0  0  0  0  0  0  0  0  0  0
  1  2  1  0
  2  3  2  0
  2  4  1  0
  4  5  1  0
  5  6  1  0
  6  7  2  0
  6  8  1  0
  1  9  1  0
  1 10  1  0
  1 11  1  0
  4 12  1  0
  4 13  1  0
M  CHG  2   6   1   8  -1
M  END
>  <_TriposChargeType>  (313) 
USER_CHARGES

>  <solvdG>  (313) 
-5.99

>  <fdG>  (313) 
-5.36

>  <fname>  (313) 
mobley_4964807

>  <cname>  (313) 
 nitroxyacetone

>  <dataset>  (313) 
FreeSolv

$$$$
ethylsulfanylethane
     RDKit          3D

 15 14  0  0  0  0  0  0  0  0999 V2000
    0.5033   -0.3033    1.1381 C   0  0  0  0  0  0  0  0  0  0  0  0
    1.8518   -0.8681    0.7340 C   0  0  0  0  0  0  0  0  0  0  0  0
    2.9258    0.4446    0.0921 S   0  0  0  0  0  0  0  0  0  0  0  0
    4.3832   -0.5607   -0.2730 C   0  0  0  0  0  0  0  0  0  0  0  0
    5.4983    0.2958   -0.8475 C   0  0  0  0  0  0  0  0  0  0  0  0
   -0.1588   -1.0836    1.5286 H   0  0  0  0  0  0  0  0  0  0  0  0
    0.6059    0.4789    1.8979 H   0  0  0  0  0  0  0  0  0  0  0  0
    0.0105    0.1433    0.2680 H   0  0  0  0  0  0  0  0  0  0  0  0
    1.7267   -1.6313   -0.0402 H   0  0  0  0  0  0  0  0  0  0  0  0
    2.3409   -1.3340    1.5948 H   0  0  0  0  0  0  0  0  0  0  0  0
    4.7216   -1.0489    0.6483 H   0  0  0  0  0  0  0  0  0  0  0  0
    4.1072   -1.3453   -0.9868 H   0  0  0  0  0  0  0  0  0  0  0  0
    6.3873   -0.3029   -1.0728 H   0  0  0  0  0  0  0  0  0  0  0  0
    5.1805    0.8060   -1.7631 H   0  0  0  0  0  0  0  0  0  0  0  0
    5.7922    1.0648   -0.1253 H   0  0  0  0  0  0  0  0  0  0  0  0
  1  2  1  0
  2  3  1  0
  3  4  1  0
  4  5  1  0
  1  6  1  0
  1  7  1  0
  1  8  1  0
  2  9  1  0
  2 10  1  0
  4 11  1  0
  4 12  1  0
  5 13  1  0
  5 14  1  0
  5 15  1  0
M  END
>  <_TriposChargeType>  (314) 
USER_CHARGES

>  <solvdG>  (314) 
-1.46

>  <fdG>  (314) 
0.3

>  <fname>  (314) 
mobley_4983965

>  <cname>  (314) 
 ethylsulfanylethane

>  <dataset>  (314) 
FreeSolv

$$$$
2-aminoanthracene-9,10-dione
     RDKit          3D

 26 28  0  0  0  0  0  0  0  0999 V2000
    1.2904   -1.6865   -0.3516 C   0  0  0  0  0  0  0  0  0  0  0  0
    0.9563   -0.4630    0.2256 C   0  0  0  0  0  0  0  0  0  0  0  0
    1.8484    0.1684    1.0928 C   0  0  0  0  0  0  0  0  0  0  0  0
    3.0812   -0.4277    1.3842 C   0  0  0  0  0  0  0  0  0  0  0  0
    3.4160   -1.6538    0.8057 C   0  0  0  0  0  0  0  0  0  0  0  0
    2.5179   -2.2839   -0.0640 C   0  0  0  0  0  0  0  0  0  0  0  0
    4.7134   -2.2938    1.1043 C   0  0  0  0  0  0  0  0  0  0  0  0
    5.0071   -3.3693    0.5971 O   0  0  0  0  0  0  0  0  0  0  0  0
    5.6516   -1.6180    2.0237 C   0  0  0  0  0  0  0  0  0  0  0  0
    6.8845   -2.2140    2.3149 C   0  0  0  0  0  0  0  0  0  0  0  0
    7.7766   -1.5826    3.1822 C   0  0  0  0  0  0  0  0  0  0  0  0
    7.4425   -0.3591    3.7594 C   0  0  0  0  0  0  0  0  0  0  0  0
    6.2150    0.2382    3.4720 C   0  0  0  0  0  0  0  0  0  0  0  0
    5.3168   -0.3919    2.6022 C   0  0  0  0  0  0  0  0  0  0  0  0
    4.0194    0.2481    2.3036 C   0  0  0  0  0  0  0  0  0  0  0  0
    3.7251    1.3235    2.8104 O   0  0  0  0  0  0  0  0  0  0  0  0
    8.3469    0.2762    4.6363 N   0  0  0  0  0  0  0  0  0  0  0  0
    0.5938   -2.1769   -1.0254 H   0  0  0  0  0  0  0  0  0  0  0  0
   -0.0006   -0.0005    0.0012 H   0  0  0  0  0  0  0  0  0  0  0  0
    1.5648    1.1220    1.5304 H   0  0  0  0  0  0  0  0  0  0  0  0
    2.7545   -3.2381   -0.5270 H   0  0  0  0  0  0  0  0  0  0  0  0
    7.1687   -3.1676    1.8783 H   0  0  0  0  0  0  0  0  0  0  0  0
    8.7307   -2.0551    3.4018 H   0  0  0  0  0  0  0  0  0  0  0  0
    5.9679    1.1935    3.9297 H   0  0  0  0  0  0  0  0  0  0  0  0
    8.1162    1.1756    5.0070 H   0  0  0  0  0  0  0  0  0  0  0  0
    9.2421   -0.1388    4.7975 H   0  0  0  0  0  0  0  0  0  0  0  0
  1  6  2  0
  1  2  1  0
  2  3  2  0
  3  4  1  0
  4 15  1  0
  4  5  2  0
  5  6  1  0
  5  7  1  0
  7  8  2  0
  7  9  1  0
  9 14  2  0
  9 10  1  0
 10 11  2  0
 11 12  1  0
 12 13  2  0
 13 14  1  0
 14 15  1  0
 15 16  2  0
 12 17  1  0
  1 18  1  0
  2 19  1  0
  3 20  1  0
  6 21  1  0
 10 22  1  0
 11 23  1  0
 13 24  1  0
 17 25  1  0
 17 26  1  0
M  END
>  <_TriposChargeType>  (315) 
USER_CHARGES

>  <solvdG>  (315) 
-11.53

>  <fdG>  (315) 
-13.89

>  <fname>  (315) 
mobley_5003962

>  <cname>  (315) 
 2-amino-9,10-anthraquinone

>  <dataset>  (315) 
FreeSolv

$$$$
(4S)-4-isopropenylcyclohexene-1-carbaldehyde
     RDKit          3D

 25 25  0  0  0  0  0  0  0  0999 V2000
    5.8422   -2.3168   -2.6944 C   0  0  0  0  0  0  0  0  0  0  0  0
    5.7457   -0.8209   -2.6399 C   0  0  0  0  0  0  0  0  0  0  0  0
    6.7974   -0.0322   -2.9060 C   0  0  0  0  0  0  0  0  0  0  0  0
    4.4076   -0.2585   -2.2718 C   0  0  1  0  0  0  0  0  0  0  0  0
    4.5008    0.8351   -2.2757 H   0  0  0  0  0  0  0  0  0  0  0  0
    3.3361   -0.6546   -3.2969 C   0  0  0  0  0  0  0  0  0  0  0  0
    1.9790   -0.0349   -2.9459 C   0  0  0  0  0  0  0  0  0  0  0  0
    1.6548   -0.1446   -1.4874 C   0  0  0  0  0  0  0  0  0  0  0  0
    2.5537   -0.4608   -0.5445 C   0  0  0  0  0  0  0  0  0  0  0  0
    4.0025   -0.7091   -0.8571 C   0  0  0  0  0  0  0  0  0  0  0  0
    0.2721    0.0838   -1.0609 C   0  0  0  0  0  0  0  0  0  0  0  0
   -0.6237    0.3597   -1.8491 O   0  0  0  0  0  0  0  0  0  0  0  0
    6.1319   -2.7144   -1.7164 H   0  0  0  0  0  0  0  0  0  0  0  0
    4.8761   -2.7497   -2.9735 H   0  0  0  0  0  0  0  0  0  0  0  0
    6.5837   -2.6565   -3.4252 H   0  0  0  0  0  0  0  0  0  0  0  0
    6.7174    1.0488   -2.8638 H   0  0  0  0  0  0  0  0  0  0  0  0
    7.7630   -0.4494   -3.1722 H   0  0  0  0  0  0  0  0  0  0  0  0
    3.6259   -0.3351   -4.3057 H   0  0  0  0  0  0  0  0  0  0  0  0
    3.2383   -1.7486   -3.3302 H   0  0  0  0  0  0  0  0  0  0  0  0
    1.9803    1.0259   -3.2256 H   0  0  0  0  0  0  0  0  0  0  0  0
    1.2036   -0.5256   -3.5461 H   0  0  0  0  0  0  0  0  0  0  0  0
    2.2598   -0.5519    0.4979 H   0  0  0  0  0  0  0  0  0  0  0  0
    4.6185   -0.1780   -0.1205 H   0  0  0  0  0  0  0  0  0  0  0  0
    4.1986   -1.7805   -0.7198 H   0  0  0  0  0  0  0  0  0  0  0  0
    0.0954   -0.0096    0.0234 H   0  0  0  0  0  0  0  0  0  0  0  0
  1  2  1  0
  2  3  2  3
  2  4  1  0
  4  5  1  1
  4 10  1  0
  4  6  1  0
  6  7  1  0
  7  8  1  0
  8  9  2  0
  9 10  1  0
  8 11  1  0
 11 12  2  0
  1 13  1  0
  1 14  1  0
  1 15  1  0
  3 16  1  0
  3 17  1  0
  6 18  1  0
  6 19  1  0
  7 20  1  0
  7 21  1  0
  9 22  1  0
 10 23  1  0
 10 24  1  0
 11 25  1  0
M  END
>  <_TriposChargeType>  (316) 
USER_CHARGES

>  <solvdG>  (316) 
-4.09

>  <fdG>  (316) 
-3.59

>  <fname>  (316) 
mobley_5006685

>  <cname>  (316) 
 4-(1-Methylethenyl)-1-cyclohexene-1-carboxaldehyde

>  <dataset>  (316) 
FreeSolv

$$$$
pyridine-4-carbonitrile
     RDKit          3D

 12 12  0  0  0  0  0  0  0  0999 V2000
    0.2265   -0.4197    0.9733 C   0  0  0  0  0  0  0  0  0  0  0  0
   -0.6317   -1.3224    1.5803 C   0  0  0  0  0  0  0  0  0  0  0  0
   -0.4092   -1.8816    2.7908 N   0  0  0  0  0  0  0  0  0  0  0  0
    0.7299   -1.5161    3.4206 C   0  0  0  0  0  0  0  0  0  0  0  0
    1.6520   -0.6227    2.8997 C   0  0  0  0  0  0  0  0  0  0  0  0
    1.3879   -0.0684    1.6522 C   0  0  0  0  0  0  0  0  0  0  0  0
    2.3060    0.8582    1.0694 C   0  0  0  0  0  0  0  0  0  0  0  0
    3.0528    1.6120    0.5954 N   0  0  0  0  0  0  0  0  0  0  0  0
   -0.0133   -0.0084   -0.0019 H   0  0  0  0  0  0  0  0  0  0  0  0
   -1.5511   -1.6289    1.0925 H   0  0  0  0  0  0  0  0  0  0  0  0
    0.8893   -1.9760    4.3905 H   0  0  0  0  0  0  0  0  0  0  0  0
    2.5477   -0.3729    3.4592 H   0  0  0  0  0  0  0  0  0  0  0  0
  1  6  2  0
  1  2  1  0
  2  3  2  0
  3  4  1  0
  4  5  2  0
  5  6  1  0
  6  7  1  0
  7  8  3  0
  1  9  1  0
  2 10  1  0
  4 11  1  0
  5 12  1  0
M  END
>  <_TriposChargeType>  (317) 
USER_CHARGES

>  <solvdG>  (317) 
-6.02

>  <fdG>  (317) 
-5.76

>  <fname>  (317) 
mobley_5026370

>  <cname>  (317) 
 pyridine-4-carbonitrile

>  <dataset>  (317) 
FreeSolv

$$$$
1-propylsulfanylpropane
     RDKit          3D

 21 20  0  0  0  0  0  0  0  0999 V2000
   -0.3678   -0.3232    3.3285 C   0  0  0  0  0  0  0  0  0  0  0  0
    1.1200   -0.3490    3.6472 C   0  0  0  0  0  0  0  0  0  0  0  0
    1.8811   -1.2098    2.6451 C   0  0  0  0  0  0  0  0  0  0  0  0
    3.6528   -1.2294    3.0399 S   0  0  0  0  0  0  0  0  0  0  0  0
    4.2094   -2.3030    1.6966 C   0  0  0  0  0  0  0  0  0  0  0  0
    5.7204   -2.5160    1.7636 C   0  0  0  0  0  0  0  0  0  0  0  0
    6.2037   -3.4186    0.6378 C   0  0  0  0  0  0  0  0  0  0  0  0
   -0.9127    0.2952    4.0489 H   0  0  0  0  0  0  0  0  0  0  0  0
   -0.5342    0.0924    2.3297 H   0  0  0  0  0  0  0  0  0  0  0  0
   -0.7914   -1.3324    3.3515 H   0  0  0  0  0  0  0  0  0  0  0  0
    1.2551   -0.7366    4.6642 H   0  0  0  0  0  0  0  0  0  0  0  0
    1.5004    0.6795    3.6340 H   0  0  0  0  0  0  0  0  0  0  0  0
    1.5110   -2.2400    2.6610 H   0  0  0  0  0  0  0  0  0  0  0  0
    1.7568   -0.8214    1.6292 H   0  0  0  0  0  0  0  0  0  0  0  0
    3.9310   -1.8458    0.7389 H   0  0  0  0  0  0  0  0  0  0  0  0
    3.6854   -3.2642    1.7710 H   0  0  0  0  0  0  0  0  0  0  0  0
    6.2428   -1.5543    1.6923 H   0  0  0  0  0  0  0  0  0  0  0  0
    5.9975   -2.9704    2.7225 H   0  0  0  0  0  0  0  0  0  0  0  0
    7.2869   -3.5671    0.6916 H   0  0  0  0  0  0  0  0  0  0  0  0
    5.7226   -4.3995    0.7056 H   0  0  0  0  0  0  0  0  0  0  0  0
    5.9633   -2.9891   -0.3400 H   0  0  0  0  0  0  0  0  0  0  0  0
  1  2  1  0
  2  3  1  0
  3  4  1  0
  4  5  1  0
  5  6  1  0
  6  7  1  0
  1  8  1  0
  1  9  1  0
  1 10  1  0
  2 11  1  0
  2 12  1  0
  3 13  1  0
  3 14  1  0
  5 15  1  0
  5 16  1  0
  6 17  1  0
  6 18  1  0
  7 19  1  0
  7 20  1  0
  7 21  1  0
M  END
>  <_TriposChargeType>  (318) 
USER_CHARGES

>  <solvdG>  (318) 
-1.28

>  <fdG>  (318) 
0.64

>  <fname>  (318) 
mobley_5052949

>  <cname>  (318) 
 1-propylsulfanylpropane

>  <dataset>  (318) 
FreeSolv

$$$$
(2S)-2-methyltetrahydrofuran
     RDKit          3D

 16 16  0  0  0  0  0  0  0  0999 V2000
    0.5047   -4.0085    1.1886 C   0  0  0  0  0  0  0  0  0  0  0  0
    0.2544   -2.6641    0.5333 C   0  0  1  0  0  0  0  0  0  0  0  0
   -0.8070   -2.5716    0.2732 H   0  0  0  0  0  0  0  0  0  0  0  0
    0.6909   -1.4844    1.3846 C   0  0  0  0  0  0  0  0  0  0  0  0
    0.9499   -0.4348    0.3331 C   0  0  0  0  0  0  0  0  0  0  0  0
    1.5629   -1.2542   -0.7826 C   0  0  0  0  0  0  0  0  0  0  0  0
    1.0007   -2.5718   -0.6918 O   0  0  0  0  0  0  0  0  0  0  0  0
    1.5606   -4.1159    1.4543 H   0  0  0  0  0  0  0  0  0  0  0  0
   -0.0919   -4.1089    2.1002 H   0  0  0  0  0  0  0  0  0  0  0  0
    0.2359   -4.8230    0.5094 H   0  0  0  0  0  0  0  0  0  0  0  0
   -0.0627   -1.1875    2.1192 H   0  0  0  0  0  0  0  0  0  0  0  0
    1.6223   -1.7067    1.9194 H   0  0  0  0  0  0  0  0  0  0  0  0
   -0.0001   -0.0004   -0.0003 H   0  0  0  0  0  0  0  0  0  0  0  0
    1.5984    0.3771    0.6721 H   0  0  0  0  0  0  0  0  0  0  0  0
    1.3602   -0.8342   -1.7718 H   0  0  0  0  0  0  0  0  0  0  0  0
    2.6469   -1.3459   -0.6567 H   0  0  0  0  0  0  0  0  0  0  0  0
  1  2  1  0
  2  3  1  6
  2  7  1  0
  2  4  1  0
  4  5  1  0
  5  6  1  0
  6  7  1  0
  1  8  1  0
  1  9  1  0
  1 10  1  0
  4 11  1  0
  4 12  1  0
  5 13  1  0
  5 14  1  0
  6 15  1  0
  6 16  1  0
M  END
>  <_TriposChargeType>  (319) 
USER_CHARGES

>  <solvdG>  (319) 
-3.3

>  <fdG>  (319) 
-1.98

>  <fname>  (319) 
mobley_5056289

>  <cname>  (319) 
 2-methyltetrahydrofuran

>  <dataset>  (319) 
FreeSolv

$$$$
2-nitrophenol
     RDKit          3D

 15 15  0  0  0  0  0  0  0  0999 V2000
    1.8851   -1.0363   -0.1124 C   0  0  0  0  0  0  0  0  0  0  0  0
    2.9210   -1.6309    0.6081 C   0  0  0  0  0  0  0  0  0  0  0  0
    2.8783   -1.6520    2.0022 C   0  0  0  0  0  0  0  0  0  0  0  0
    1.7997   -1.0786    2.6757 C   0  0  0  0  0  0  0  0  0  0  0  0
    0.7638   -0.4841    1.9551 C   0  0  0  0  0  0  0  0  0  0  0  0
    0.8066   -0.4630    0.5610 C   0  0  0  0  0  0  0  0  0  0  0  0
   -0.3436    0.1049    2.6249 N   0  0  0  0  0  4  0  0  0  0  0  0
   -0.2857    1.3167    2.9414 O   0  0  0  0  0  0  0  0  0  0  0  0
   -1.3453   -0.6049    2.8794 O   0  0  0  0  0  1  0  0  0  0  0  0
    1.7803   -1.1121    4.0385 O   0  0  0  0  0  0  0  0  0  0  0  0
    1.9185   -1.0196   -1.1979 H   0  0  0  0  0  0  0  0  0  0  0  0
    3.7605   -2.0781    0.0839 H   0  0  0  0  0  0  0  0  0  0  0  0
    3.6884   -2.1175    2.5574 H   0  0  0  0  0  0  0  0  0  0  0  0
    0.0064   -0.0028   -0.0139 H   0  0  0  0  0  0  0  0  0  0  0  0
    2.5726   -1.5601    4.3729 H   0  0  0  0  0  0  0  0  0  0  0  0
  1  6  2  0
  1  2  1  0
  2  3  2  0
  3  4  1  0
  4  5  2  0
  5  6  1  0
  5  7  1  0
  7  8  2  0
  7  9  1  0
  4 10  1  0
  1 11  1  0
  2 12  1  0
  3 13  1  0
  6 14  1  0
 10 15  1  0
M  CHG  2   7   1   9  -1
M  END
>  <_TriposChargeType>  (320) 
USER_CHARGES

>  <solvdG>  (320) 
-4.58

>  <fdG>  (320) 
-5.67

>  <fname>  (320) 
mobley_5063386

>  <cname>  (320) 
 2-nitrophenol

>  <dataset>  (320) 
FreeSolv

$$$$
2-methoxyaniline
     RDKit          3D

 18 18  0  0  0  0  0  0  0  0999 V2000
    1.3610   -2.1336   -2.1494 C   0  0  0  0  0  0  0  0  0  0  0  0
    1.9458   -1.0263   -1.4741 O   0  0  0  0  0  0  0  0  0  0  0  0
    1.8851   -1.0363   -0.1124 C   0  0  0  0  0  0  0  0  0  0  0  0
    2.9210   -1.6309    0.6081 C   0  0  0  0  0  0  0  0  0  0  0  0
    2.8783   -1.6520    2.0022 C   0  0  0  0  0  0  0  0  0  0  0  0
    1.7997   -1.0786    2.6757 C   0  0  0  0  0  0  0  0  0  0  0  0
    0.7638   -0.4841    1.9551 C   0  0  0  0  0  0  0  0  0  0  0  0
    0.8066   -0.4630    0.5610 C   0  0  0  0  0  0  0  0  0  0  0  0
   -0.2490    0.1417   -0.1556 N   0  0  0  0  0  0  0  0  0  0  0  0
    1.4757   -2.0052   -3.2285 H   0  0  0  0  0  0  0  0  0  0  0  0
    0.3014   -2.2014   -1.8903 H   0  0  0  0  0  0  0  0  0  0  0  0
    1.8695   -3.0490   -1.8377 H   0  0  0  0  0  0  0  0  0  0  0  0
    3.7644   -2.0791    0.0899 H   0  0  0  0  0  0  0  0  0  0  0  0
    3.6852   -2.1142    2.5632 H   0  0  0  0  0  0  0  0  0  0  0  0
    1.7668   -1.0946    3.7611 H   0  0  0  0  0  0  0  0  0  0  0  0
   -0.0716   -0.0403    2.4906 H   0  0  0  0  0  0  0  0  0  0  0  0
   -0.1919    0.1966   -1.1517 H   0  0  0  0  0  0  0  0  0  0  0  0
   -0.9873    0.5868    0.3497 H   0  0  0  0  0  0  0  0  0  0  0  0
  1  2  1  0
  2  3  1  0
  3  8  2  0
  3  4  1  0
  4  5  2  0
  5  6  1  0
  6  7  2  0
  7  8  1  0
  8  9  1  0
  1 10  1  0
  1 11  1  0
  1 12  1  0
  4 13  1  0
  5 14  1  0
  6 15  1  0
  7 16  1  0
  9 17  1  0
  9 18  1  0
M  END
>  <_TriposChargeType>  (321) 
USER_CHARGES

>  <solvdG>  (321) 
-6.12

>  <fdG>  (321) 
-6.77

>  <fname>  (321) 
mobley_5072416

>  <cname>  (321) 
 2-methoxyaniline

>  <dataset>  (321) 
FreeSolv

$$$$
N3,N3-diethyl-2,4-dinitro-6-(trifluoromethyl)benzene-1,3-diamine
     RDKit          3D

 35 35  0  0  0  0  0  0  0  0999 V2000
    3.6923   -0.3907   -3.0851 C   0  0  0  0  0  0  0  0  0  0  0  0
    2.5598    0.0883   -2.2421 C   0  0  0  0  0  0  0  0  0  0  0  0
    1.9317   -1.0162   -1.5284 N   0  0  0  0  0  0  0  0  0  0  0  0
    1.3651   -2.1063   -2.3124 C   0  0  0  0  0  0  0  0  0  0  0  0
    0.2925   -1.5997   -3.2033 C   0  0  0  0  0  0  0  0  0  0  0  0
    1.8851   -1.0363   -0.1124 C   0  0  0  0  0  0  0  0  0  0  0  0
    2.9210   -1.6309    0.6081 C   0  0  0  0  0  0  0  0  0  0  0  0
    2.8783   -1.6520    2.0022 C   0  0  0  0  0  0  0  0  0  0  0  0
    1.7997   -1.0786    2.6757 C   0  0  0  0  0  0  0  0  0  0  0  0
    0.7638   -0.4841    1.9551 C   0  0  0  0  0  0  0  0  0  0  0  0
    0.8066   -0.4630    0.5610 C   0  0  0  0  0  0  0  0  0  0  0  0
   -0.2537    0.1450   -0.1760 N   0  0  0  0  0  4  0  0  0  0  0  0
   -0.1703    1.3618   -0.4555 O   0  0  0  0  0  0  0  0  0  0  0  0
   -1.2296   -0.5599   -0.5169 O   0  0  0  0  0  1  0  0  0  0  0  0
   -0.3269    0.0944    2.6477 N   0  0  0  0  0  0  0  0  0  0  0  0
    1.7825   -1.1166    4.1696 C   0  0  0  0  0  0  0  0  0  0  0  0
    2.8721   -1.7347    4.7110 F   0  0  0  0  0  0  0  0  0  0  0  0
    1.7493    0.1205    4.7446 F   0  0  0  0  0  0  0  0  0  0  0  0
    0.6987   -1.7816    4.6624 F   0  0  0  0  0  0  0  0  0  0  0  0
    4.0348   -2.2238   -0.0509 N   0  0  0  0  0  4  0  0  0  0  0  0
    5.0375   -1.5149   -0.2998 O   0  0  0  0  0  0  0  0  0  0  0  0
    3.9777   -3.4363   -0.3619 O   0  0  0  0  0  1  0  0  0  0  0  0
    4.1613    0.4425   -3.6195 H   0  0  0  0  0  0  0  0  0  0  0  0
    4.4466   -0.8979   -2.4737 H   0  0  0  0  0  0  0  0  0  0  0  0
    3.3239   -1.1057   -3.8305 H   0  0  0  0  0  0  0  0  0  0  0  0
    1.7940    0.5633   -2.8626 H   0  0  0  0  0  0  0  0  0  0  0  0
    2.9084    0.8105   -1.4980 H   0  0  0  0  0  0  0  0  0  0  0  0
    2.1836   -2.5400   -2.8832 H   0  0  0  0  0  0  0  0  0  0  0  0
    0.9854   -2.8377   -1.6023 H   0  0  0  0  0  0  0  0  0  0  0  0
   -0.1435   -2.4085   -3.7997 H   0  0  0  0  0  0  0  0  0  0  0  0
   -0.4999   -1.1066   -2.6297 H   0  0  0  0  0  0  0  0  0  0  0  0
    0.7192   -0.8627   -3.8942 H   0  0  0  0  0  0  0  0  0  0  0  0
    3.6843   -2.1150    2.5680 H   0  0  0  0  0  0  0  0  0  0  0  0
   -1.0388    0.5583    2.1255 H   0  0  0  0  0  0  0  0  0  0  0  0
   -0.3123    0.1082    3.6449 H   0  0  0  0  0  0  0  0  0  0  0  0
  1  2  1  0
  2  3  1  0
  3  4  1  0
  4  5  1  0
  3  6  1  0
  6 11  2  0
  6  7  1  0
  7  8  2  0
  8  9  1  0
  9 10  2  0
 10 11  1  0
 11 12  1  0
 12 13  2  0
 12 14  1  0
 10 15  1  0
  9 16  1  0
 16 17  1  0
 16 18  1  0
 16 19  1  0
  7 20  1  0
 20 21  2  0
 20 22  1  0
  1 23  1  0
  1 24  1  0
  1 25  1  0
  2 26  1  0
  2 27  1  0
  4 28  1  0
  4 29  1  0
  5 30  1  0
  5 31  1  0
  5 32  1  0
  8 33  1  0
 15 34  1  0
 15 35  1  0
M  CHG  4  12   1  14  -1  20   1  22  -1
M  END
>  <_TriposChargeType>  (322) 
USER_CHARGES

>  <solvdG>  (322) 
-5.66

>  <fdG>  (322) 
-7.5

>  <fname>  (322) 
mobley_5076071

>  <cname>  (322) 
 1-N,1-N-diethyl-2,6-dinitro-4-(trifluoromethyl)benzene-1,3-diamine

>  <dataset>  (322) 
FreeSolv

$$$$
heptan-1-ol
     RDKit          3D

 24 23  0  0  0  0  0  0  0  0999 V2000
    2.0149   -2.4052   -0.2391 C   0  0  0  0  0  0  0  0  0  0  0  0
    1.5983   -2.9291   -1.6052 C   0  0  0  0  0  0  0  0  0  0  0  0
    0.0762   -3.0068   -1.7315 C   0  0  0  0  0  0  0  0  0  0  0  0
   -0.3960   -3.5293   -3.0913 C   0  0  0  0  0  0  0  0  0  0  0  0
   -1.9190   -3.6070   -3.2176 C   0  0  0  0  0  0  0  0  0  0  0  0
   -2.3340   -4.1335   -4.5907 C   0  0  0  0  0  0  0  0  0  0  0  0
   -3.8478   -4.2149   -4.7273 C   0  0  0  0  0  0  0  0  0  0  0  0
   -4.1663   -4.7094   -6.0208 O   0  0  0  0  0  0  0  0  0  0  0  0
    3.1051   -2.3520   -0.1552 H   0  0  0  0  0  0  0  0  0  0  0  0
    1.6450   -3.0678    0.5496 H   0  0  0  0  0  0  0  0  0  0  0  0
    1.6067   -1.4051   -0.0609 H   0  0  0  0  0  0  0  0  0  0  0  0
    2.0366   -3.9220   -1.7580 H   0  0  0  0  0  0  0  0  0  0  0  0
    2.0114   -2.2675   -2.3739 H   0  0  0  0  0  0  0  0  0  0  0  0
   -0.3622   -2.0188   -1.5448 H   0  0  0  0  0  0  0  0  0  0  0  0
   -0.3137   -3.6763   -0.9545 H   0  0  0  0  0  0  0  0  0  0  0  0
    0.0104   -2.8967   -3.8898 H   0  0  0  0  0  0  0  0  0  0  0  0
    0.0265   -4.5313   -3.2368 H   0  0  0  0  0  0  0  0  0  0  0  0
   -2.3599   -2.6154   -3.0669 H   0  0  0  0  0  0  0  0  0  0  0  0
   -2.3199   -4.2641   -2.4365 H   0  0  0  0  0  0  0  0  0  0  0  0
   -1.9007   -5.1265   -4.7643 H   0  0  0  0  0  0  0  0  0  0  0  0
   -1.9320   -3.4884   -5.3821 H   0  0  0  0  0  0  0  0  0  0  0  0
   -4.3046   -3.2270   -4.6101 H   0  0  0  0  0  0  0  0  0  0  0  0
   -4.2711   -4.8944   -3.9808 H   0  0  0  0  0  0  0  0  0  0  0  0
   -5.1349   -4.7491   -6.0752 H   0  0  0  0  0  0  0  0  0  0  0  0
  1  2  1  0
  2  3  1  0
  3  4  1  0
  4  5  1  0
  5  6  1  0
  6  7  1  0
  7  8  1  0
  1  9  1  0
  1 10  1  0
  1 11  1  0
  2 12  1  0
  2 13  1  0
  3 14  1  0
  3 15  1  0
  4 16  1  0
  4 17  1  0
  5 18  1  0
  5 19  1  0
  6 20  1  0
  6 21  1  0
  7 22  1  0
  7 23  1  0
  8 24  1  0
M  END
>  <_TriposChargeType>  (323) 
USER_CHARGES

>  <solvdG>  (323) 
-4.21

>  <fdG>  (323) 
-2.92

>  <fname>  (323) 
mobley_5079234

>  <cname>  (323) 
 heptan-1-ol

>  <dataset>  (323) 
FreeSolv

$$$$
indane
     RDKit          3D

 19 20  0  0  0  0  0  0  0  0999 V2000
   -0.9111   -1.1190    1.6051 C   0  0  0  0  0  0  0  0  0  0  0  0
   -0.1942   -0.9896    0.4048 C   0  0  0  0  0  0  0  0  0  0  0  0
    0.2780   -2.1186   -0.2681 C   0  0  0  0  0  0  0  0  0  0  0  0
    0.0095   -3.3646    0.2726 C   0  0  0  0  0  0  0  0  0  0  0  0
   -0.7058   -3.4937    1.4690 C   0  0  0  0  0  0  0  0  0  0  0  0
   -1.1666   -2.3794    2.1497 C   0  0  0  0  0  0  0  0  0  0  0  0
   -0.8216   -4.9308    1.8681 C   0  0  0  0  0  0  0  0  0  0  0  0
   -0.5014   -5.6348    0.5408 C   0  0  0  0  0  0  0  0  0  0  0  0
    0.4394   -4.7033   -0.2384 C   0  0  0  0  0  0  0  0  0  0  0  0
   -1.2646   -0.2284    2.1177 H   0  0  0  0  0  0  0  0  0  0  0  0
   -0.0007   -0.0001   -0.0006 H   0  0  0  0  0  0  0  0  0  0  0  0
    0.8406   -2.0155   -1.1897 H   0  0  0  0  0  0  0  0  0  0  0  0
   -1.7100   -2.4763    3.0833 H   0  0  0  0  0  0  0  0  0  0  0  0
   -0.0763   -5.1709    2.6332 H   0  0  0  0  0  0  0  0  0  0  0  0
   -1.8225   -5.1884    2.2254 H   0  0  0  0  0  0  0  0  0  0  0  0
   -0.0739   -6.6313    0.6891 H   0  0  0  0  0  0  0  0  0  0  0  0
   -1.4315   -5.7645   -0.0301 H   0  0  0  0  0  0  0  0  0  0  0  0
    1.4860   -4.8884    0.0246 H   0  0  0  0  0  0  0  0  0  0  0  0
    0.2979   -4.8057   -1.3178 H   0  0  0  0  0  0  0  0  0  0  0  0
  1  6  2  0
  1  2  1  0
  2  3  2  0
  3  4  1  0
  4  9  1  0
  4  5  2  0
  5  6  1  0
  5  7  1  0
  7  8  1  0
  8  9  1  0
  1 10  1  0
  2 11  1  0
  3 12  1  0
  6 13  1  0
  7 14  1  0
  7 15  1  0
  8 16  1  0
  8 17  1  0
  9 18  1  0
  9 19  1  0
M  END
>  <_TriposChargeType>  (324) 
USER_CHARGES

>  <solvdG>  (324) 
-1.46

>  <fdG>  (324) 
-1.75

>  <fname>  (324) 
mobley_5094777

>  <cname>  (324) 
 indane

>  <dataset>  (324) 
FreeSolv

$$$$
2,6-dimethylnaphthalene
     RDKit          3D

 24 25  0  0  0  0  0  0  0  0999 V2000
   -1.8844   -1.7015    0.9273 C   0  0  0  0  0  0  0  0  0  0  0  0
   -0.4966   -2.0341    0.4940 C   0  0  0  0  0  0  0  0  0  0  0  0
    0.3500   -1.0275    0.0392 C   0  0  0  0  0  0  0  0  0  0  0  0
    1.6484   -1.3369   -0.3665 C   0  0  0  0  0  0  0  0  0  0  0  0
    2.1168   -2.6602   -0.3222 C   0  0  0  0  0  0  0  0  0  0  0  0
    3.4207   -2.9899   -0.7267 C   0  0  0  0  0  0  0  0  0  0  0  0
    3.8693   -4.3100   -0.6758 C   0  0  0  0  0  0  0  0  0  0  0  0
    3.0228   -5.3167   -0.2210 C   0  0  0  0  0  0  0  0  0  0  0  0
    1.7243   -5.0072    0.1848 C   0  0  0  0  0  0  0  0  0  0  0  0
    1.2560   -3.6839    0.1403 C   0  0  0  0  0  0  0  0  0  0  0  0
   -0.0479   -3.3542    0.5448 C   0  0  0  0  0  0  0  0  0  0  0  0
    5.2572   -4.6426   -1.1090 C   0  0  0  0  0  0  0  0  0  0  0  0
   -1.8969   -1.4668    1.9960 H   0  0  0  0  0  0  0  0  0  0  0  0
   -2.2719   -0.8413    0.3714 H   0  0  0  0  0  0  0  0  0  0  0  0
   -2.5637   -2.5400    0.7408 H   0  0  0  0  0  0  0  0  0  0  0  0
    0.0085    0.0035   -0.0023 H   0  0  0  0  0  0  0  0  0  0  0  0
    2.2925   -0.5341   -0.7194 H   0  0  0  0  0  0  0  0  0  0  0  0
    4.0933   -2.2121   -1.0846 H   0  0  0  0  0  0  0  0  0  0  0  0
    3.3649   -6.3474   -0.1776 H   0  0  0  0  0  0  0  0  0  0  0  0
    1.0797   -5.8102    0.5361 H   0  0  0  0  0  0  0  0  0  0  0  0
   -0.7203   -4.1319    0.9032 H   0  0  0  0  0  0  0  0  0  0  0  0
    5.9484   -4.5767   -0.2599 H   0  0  0  0  0  0  0  0  0  0  0  0
    5.3124   -5.6571   -1.5247 H   0  0  0  0  0  0  0  0  0  0  0  0
    5.6042   -3.9583   -1.8942 H   0  0  0  0  0  0  0  0  0  0  0  0
  1  2  1  0
  2 11  2  0
  2  3  1  0
  3  4  2  0
  4  5  1  0
  5 10  2  0
  5  6  1  0
  6  7  2  0
  7  8  1  0
  8  9  2  0
  9 10  1  0
 10 11  1  0
  7 12  1  0
  1 13  1  0
  1 14  1  0
  1 15  1  0
  3 16  1  0
  4 17  1  0
  6 18  1  0
  8 19  1  0
  9 20  1  0
 11 21  1  0
 12 22  1  0
 12 23  1  0
 12 24  1  0
M  END
>  <_TriposChargeType>  (325) 
USER_CHARGES

>  <solvdG>  (325) 
-2.63

>  <fdG>  (325) 
-2.85

>  <fname>  (325) 
mobley_5110043

>  <cname>  (325) 
 2,6-dimethylnaphthalene

>  <dataset>  (325) 
FreeSolv

$$$$
buta-1,3-diene
     RDKit          3D

 10  9  0  0  0  0  0  0  0  0999 V2000
    0.2089    0.2287    1.0398 C   0  0  0  0  0  0  0  0  0  0  0  0
   -0.4860   -0.3695    2.0139 C   0  0  0  0  0  0  0  0  0  0  0  0
   -1.5320   -1.3323    1.7662 C   0  0  0  0  0  0  0  0  0  0  0  0
   -2.2266   -1.9301    2.7407 C   0  0  0  0  0  0  0  0  0  0  0  0
    0.9916    0.9500    1.2505 H   0  0  0  0  0  0  0  0  0  0  0  0
    0.0000    0.0000    0.0000 H   0  0  0  0  0  0  0  0  0  0  0  0
   -0.2558   -0.1234    3.0471 H   0  0  0  0  0  0  0  0  0  0  0  0
   -1.7615   -1.5793    0.7331 H   0  0  0  0  0  0  0  0  0  0  0  0
   -3.0093   -2.6515    2.5304 H   0  0  0  0  0  0  0  0  0  0  0  0
   -2.0174   -1.7016    3.7805 H   0  0  0  0  0  0  0  0  0  0  0  0
  1  2  2  3
  2  3  1  0
  3  4  2  3
  1  5  1  0
  1  6  1  0
  2  7  1  0
  3  8  1  0
  4  9  1  0
  4 10  1  0
M  END
>  <_TriposChargeType>  (326) 
USER_CHARGES

>  <solvdG>  (326) 
0.56

>  <fdG>  (326) 
1.96

>  <fname>  (326) 
mobley_511661

>  <cname>  (326) 
 butadiene

>  <dataset>  (326) 
FreeSolv

$$$$
(2R)-4-methylpentan-2-ol
     RDKit          3D

 21 20  0  0  0  0  0  0  0  0999 V2000
    1.5229   -0.0314   -2.8940 C   0  0  0  0  0  0  0  0  0  0  0  0
    1.1132    1.2947   -2.2678 C   0  0  2  0  0  0  0  0  0  0  0  0
    1.4497    1.3370   -1.2269 H   0  0  0  0  0  0  0  0  0  0  0  0
   -0.3932    1.5685   -2.3523 C   0  0  0  0  0  0  0  0  0  0  0  0
   -1.3046    0.5383   -1.6612 C   0  0  0  0  0  0  0  0  0  0  0  0
   -1.0223    0.4225   -0.1632 C   0  0  0  0  0  0  0  0  0  0  0  0
   -2.7720    0.9158   -1.8831 C   0  0  0  0  0  0  0  0  0  0  0  0
    1.7779    2.3501   -2.9654 O   0  0  0  0  0  0  0  0  0  0  0  0
    1.1932   -0.0896   -3.9370 H   0  0  0  0  0  0  0  0  0  0  0  0
    2.6141   -0.1281   -2.9052 H   0  0  0  0  0  0  0  0  0  0  0  0
    1.1128   -0.8842   -2.3465 H   0  0  0  0  0  0  0  0  0  0  0  0
   -0.5859    2.5666   -1.9347 H   0  0  0  0  0  0  0  0  0  0  0  0
   -0.6765    1.6478   -3.4111 H   0  0  0  0  0  0  0  0  0  0  0  0
   -1.1481   -0.4456   -2.1188 H   0  0  0  0  0  0  0  0  0  0  0  0
   -1.6804   -0.3146    0.3090 H   0  0  0  0  0  0  0  0  0  0  0  0
   -1.1640    1.3817    0.3439 H   0  0  0  0  0  0  0  0  0  0  0  0
    0.0135    0.1129    0.0140 H   0  0  0  0  0  0  0  0  0  0  0  0
   -3.4374    0.1936   -1.3982 H   0  0  0  0  0  0  0  0  0  0  0  0
   -2.9879    1.9028   -1.4605 H   0  0  0  0  0  0  0  0  0  0  0  0
   -3.0195    0.9425   -2.9499 H   0  0  0  0  0  0  0  0  0  0  0  0
    2.7275    2.1883   -2.8632 H   0  0  0  0  0  0  0  0  0  0  0  0
  1  2  1  0
  2  3  1  1
  2  4  1  0
  4  5  1  0
  5  6  1  0
  5  7  1  0
  2  8  1  0
  1  9  1  0
  1 10  1  0
  1 11  1  0
  4 12  1  0
  4 13  1  0
  5 14  1  0
  6 15  1  0
  6 16  1  0
  6 17  1  0
  7 18  1  0
  7 19  1  0
  7 20  1  0
  8 21  1  0
M  END
>  <_TriposChargeType>  (327) 
USER_CHARGES

>  <solvdG>  (327) 
-3.73

>  <fdG>  (327) 
-2.91

>  <fname>  (327) 
mobley_5123639

>  <cname>  (327) 
 4-methylpentan-2-ol

>  <dataset>  (327) 
FreeSolv

$$$$
isobutane
     RDKit          3D

 14 13  0  0  0  0  0  0  0  0999 V2000
    0.6623   -0.3793   -0.7853 C   0  0  0  0  0  0  0  0  0  0  0  0
    0.1007   -0.0597   -2.1688 C   0  0  0  0  0  0  0  0  0  0  0  0
   -0.0690    1.4478   -2.3443 C   0  0  0  0  0  0  0  0  0  0  0  0
    1.0050   -0.6288   -3.2598 C   0  0  0  0  0  0  0  0  0  0  0  0
    0.7892   -1.4585   -0.6459 H   0  0  0  0  0  0  0  0  0  0  0  0
    1.6377    0.0974   -0.6422 H   0  0  0  0  0  0  0  0  0  0  0  0
   -0.0072   -0.0129    0.0000 H   0  0  0  0  0  0  0  0  0  0  0  0
   -0.8858   -0.5306   -2.2580 H   0  0  0  0  0  0  0  0  0  0  0  0
   -0.4716    1.6910   -3.3337 H   0  0  0  0  0  0  0  0  0  0  0  0
    0.8911    1.9625   -2.2337 H   0  0  0  0  0  0  0  0  0  0  0  0
   -0.7541    1.8517   -1.5914 H   0  0  0  0  0  0  0  0  0  0  0  0
    0.6134   -0.4064   -4.2584 H   0  0  0  0  0  0  0  0  0  0  0  0
    1.0919   -1.7163   -3.1645 H   0  0  0  0  0  0  0  0  0  0  0  0
    2.0126   -0.2053   -3.1894 H   0  0  0  0  0  0  0  0  0  0  0  0
  1  2  1  0
  2  3  1  0
  2  4  1  0
  1  5  1  0
  1  6  1  0
  1  7  1  0
  2  8  1  0
  3  9  1  0
  3 10  1  0
  3 11  1  0
  4 12  1  0
  4 13  1  0
  4 14  1  0
M  END
>  <_TriposChargeType>  (328) 
USER_CHARGES

>  <solvdG>  (328) 
2.3

>  <fdG>  (328) 
2.54

>  <fname>  (328) 
mobley_5157661

>  <cname>  (328) 
 isobutane

>  <dataset>  (328) 
FreeSolv

$$$$
[(Z)-(2-methyl-2-methylsulfanyl-propylidene)amino] N-methylcarbamate
     RDKit          3D

 26 25  0  0  0  0  0  0  0  0999 V2000
    0.7673    0.3743    0.6883 C   0  0  0  0  0  0  0  0  0  0  0  0
    2.1338    0.4195    0.0035 C   0  0  0  0  0  0  0  0  0  0  0  0
    2.1055    1.3693   -1.1946 C   0  0  0  0  0  0  0  0  0  0  0  0
    2.6040   -0.9448   -0.4694 C   0  0  0  0  0  0  0  0  0  0  0  0
    1.9357   -1.6468   -1.3255 N   0  0  0  0  0  0  0  0  0  0  0  0
    0.7848   -0.9340   -1.6877 O   0  0  0  0  0  0  0  0  0  0  0  0
    0.0739   -1.6726   -2.5937 C   0  0  0  0  0  0  0  0  0  0  0  0
    0.4013   -2.7785   -3.0132 O   0  0  0  0  0  0  0  0  0  0  0  0
   -1.0617   -0.9808   -2.9613 N   0  0  0  0  0  0  0  0  0  0  0  0
   -2.0327   -1.4795   -3.9078 C   0  0  0  0  0  0  0  0  0  0  0  0
    3.3859    1.0049    1.2061 S   0  0  0  0  0  0  0  0  0  0  0  0
    2.6533    2.6164    1.5589 C   0  0  0  0  0  0  0  0  0  0  0  0
    0.7859   -0.3065    1.5479 H   0  0  0  0  0  0  0  0  0  0  0  0
    0.4647    1.3577    1.0676 H   0  0  0  0  0  0  0  0  0  0  0  0
   -0.0158    0.0181    0.0089 H   0  0  0  0  0  0  0  0  0  0  0  0
    3.0763    1.4182   -1.7026 H   0  0  0  0  0  0  0  0  0  0  0  0
    1.8212    2.3869   -0.9022 H   0  0  0  0  0  0  0  0  0  0  0  0
    1.3779    1.0266   -1.9404 H   0  0  0  0  0  0  0  0  0  0  0  0
    3.5510   -1.3244   -0.0399 H   0  0  0  0  0  0  0  0  0  0  0  0
   -1.2241   -0.0699   -2.5432 H   0  0  0  0  0  0  0  0  0  0  0  0
   -2.7989   -2.0509   -3.3827 H   0  0  0  0  0  0  0  0  0  0  0  0
   -1.5415   -2.1252   -4.6369 H   0  0  0  0  0  0  0  0  0  0  0  0
   -2.5031   -0.6455   -4.4300 H   0  0  0  0  0  0  0  0  0  0  0  0
    3.2690    3.1528    2.2846 H   0  0  0  0  0  0  0  0  0  0  0  0
    1.6498    2.4848    1.9701 H   0  0  0  0  0  0  0  0  0  0  0  0
    2.5898    3.2034    0.6398 H   0  0  0  0  0  0  0  0  0  0  0  0
  1  2  1  0
  2  3  1  0
  2  4  1  0
  4  5  2  0
  5  6  1  0
  6  7  1  0
  7  8  2  0
  7  9  1  0
  9 10  1  0
  2 11  1  0
 11 12  1  0
  1 13  1  0
  1 14  1  0
  1 15  1  0
  3 16  1  0
  3 17  1  0
  3 18  1  0
  4 19  1  0
  9 20  1  0
 10 21  1  0
 10 22  1  0
 10 23  1  0
 12 24  1  0
 12 25  1  0
 12 26  1  0
M  END
>  <_TriposChargeType>  (329) 
USER_CHARGES

>  <solvdG>  (329) 
-9.84

>  <fdG>  (329) 
-9.68

>  <fname>  (329) 
mobley_5200358

>  <cname>  (329) 
 aldicarb

>  <dataset>  (329) 
FreeSolv

$$$$
2-ethylpyrazine
     RDKit          3D

 16 16  0  0  0  0  0  0  0  0999 V2000
    0.7913    0.9899    1.1550 C   0  0  0  0  0  0  0  0  0  0  0  0
    0.0878    0.3939   -0.0546 C   0  0  0  0  0  0  0  0  0  0  0  0
   -0.3211   -1.0181    0.1824 C   0  0  0  0  0  0  0  0  0  0  0  0
   -1.5571   -1.3073    0.7174 C   0  0  0  0  0  0  0  0  0  0  0  0
   -1.9573   -2.5739    0.9453 N   0  0  0  0  0  0  0  0  0  0  0  0
   -1.0772   -3.5410    0.6188 C   0  0  0  0  0  0  0  0  0  0  0  0
    0.1585   -3.2519    0.0831 C   0  0  0  0  0  0  0  0  0  0  0  0
    0.5588   -1.9852   -0.1444 N   0  0  0  0  0  0  0  0  0  0  0  0
    1.0879    2.0280    0.9707 H   0  0  0  0  0  0  0  0  0  0  0  0
    1.6934    0.4159    1.3888 H   0  0  0  0  0  0  0  0  0  0  0  0
    0.1430    0.9774    2.0378 H   0  0  0  0  0  0  0  0  0  0  0  0
    0.7475    0.4453   -0.9293 H   0  0  0  0  0  0  0  0  0  0  0  0
   -0.7938    0.9966   -0.3047 H   0  0  0  0  0  0  0  0  0  0  0  0
   -2.2694   -0.5353    0.9841 H   0  0  0  0  0  0  0  0  0  0  0  0
   -1.3988   -4.5586    0.8024 H   0  0  0  0  0  0  0  0  0  0  0  0
    0.8651   -4.0292   -0.1802 H   0  0  0  0  0  0  0  0  0  0  0  0
  1  2  1  0
  2  3  1  0
  3  8  2  0
  3  4  1  0
  4  5  2  0
  5  6  1  0
  6  7  2  0
  7  8  1  0
  1  9  1  0
  1 10  1  0
  1 11  1  0
  2 12  1  0
  2 13  1  0
  4 14  1  0
  6 15  1  0
  7 16  1  0
M  END
>  <_TriposChargeType>  (330) 
USER_CHARGES

>  <solvdG>  (330) 
-5.45

>  <fdG>  (330) 
-5.81

>  <fname>  (330) 
mobley_5220185

>  <cname>  (330) 
 2-ethylpyrazine

>  <dataset>  (330) 
FreeSolv

$$$$
methanethiol
     RDKit          3D

  6  5  0  0  0  0  0  0  0  0999 V2000
    0.2788    0.8226    0.6632 C   0  0  0  0  0  0  0  0  0  0  0  0
   -0.4279    2.3668    0.0544 S   0  0  0  0  0  0  0  0  0  0  0  0
   -0.0942    0.6141    1.6690 H   0  0  0  0  0  0  0  0  0  0  0  0
    1.3683    0.9008    0.6963 H   0  0  0  0  0  0  0  0  0  0  0  0
   -0.0007   -0.0001    0.0007 H   0  0  0  0  0  0  0  0  0  0  0  0
    0.1845    2.3556   -1.1387 H   0  0  0  0  0  0  0  0  0  0  0  0
  1  2  1  0
  1  3  1  0
  1  4  1  0
  1  5  1  0
  2  6  1  0
M  END
>  <_TriposChargeType>  (331) 
USER_CHARGES

>  <solvdG>  (331) 
-1.2

>  <fdG>  (331) 
-0.27

>  <fname>  (331) 
mobley_525934

>  <cname>  (331) 
 methanethiol

>  <dataset>  (331) 
FreeSolv

$$$$
1-ethylnaphthalene
     RDKit          3D

 24 25  0  0  0  0  0  0  0  0999 V2000
   -0.9114   -4.5698    2.5513 C   0  0  0  0  0  0  0  0  0  0  0  0
   -1.0094   -4.3873    1.0445 C   0  0  0  0  0  0  0  0  0  0  0  0
   -0.0479   -3.3542    0.5448 C   0  0  0  0  0  0  0  0  0  0  0  0
   -0.4966   -2.0341    0.4940 C   0  0  0  0  0  0  0  0  0  0  0  0
    0.3500   -1.0275    0.0392 C   0  0  0  0  0  0  0  0  0  0  0  0
    1.6484   -1.3369   -0.3665 C   0  0  0  0  0  0  0  0  0  0  0  0
    2.1168   -2.6602   -0.3222 C   0  0  0  0  0  0  0  0  0  0  0  0
    1.2560   -3.6839    0.1403 C   0  0  0  0  0  0  0  0  0  0  0  0
    1.7243   -5.0072    0.1848 C   0  0  0  0  0  0  0  0  0  0  0  0
    3.0228   -5.3167   -0.2210 C   0  0  0  0  0  0  0  0  0  0  0  0
    3.8693   -4.3100   -0.6758 C   0  0  0  0  0  0  0  0  0  0  0  0
    3.4207   -2.9899   -0.7267 C   0  0  0  0  0  0  0  0  0  0  0  0
   -1.6183   -5.3271    2.9067 H   0  0  0  0  0  0  0  0  0  0  0  0
   -1.1379   -3.6285    3.0618 H   0  0  0  0  0  0  0  0  0  0  0  0
    0.0949   -4.8835    2.8489 H   0  0  0  0  0  0  0  0  0  0  0  0
   -2.0327   -4.1020    0.7717 H   0  0  0  0  0  0  0  0  0  0  0  0
   -0.8179   -5.3435    0.5423 H   0  0  0  0  0  0  0  0  0  0  0  0
   -1.5058   -1.7800    0.8075 H   0  0  0  0  0  0  0  0  0  0  0  0
    0.0006   -0.0000   -0.0016 H   0  0  0  0  0  0  0  0  0  0  0  0
    2.2930   -0.5342   -0.7188 H   0  0  0  0  0  0  0  0  0  0  0  0
    1.0938   -5.8214    0.5342 H   0  0  0  0  0  0  0  0  0  0  0  0
    3.3733   -6.3440   -0.1817 H   0  0  0  0  0  0  0  0  0  0  0  0
    4.8798   -4.5519   -0.9922 H   0  0  0  0  0  0  0  0  0  0  0  0
    4.0999   -2.2195   -1.0857 H   0  0  0  0  0  0  0  0  0  0  0  0
  1  2  1  0
  2  3  1  0
  3  8  2  0
  3  4  1  0
  4  5  2  0
  5  6  1  0
  6  7  2  0
  7 12  1  0
  7  8  1  0
  8  9  1  0
  9 10  2  0
 10 11  1  0
 11 12  2  0
  1 13  1  0
  1 14  1  0
  1 15  1  0
  2 16  1  0
  2 17  1  0
  4 18  1  0
  5 19  1  0
  6 20  1  0
  9 21  1  0
 10 22  1  0
 11 23  1  0
 12 24  1  0
M  END
>  <_TriposChargeType>  (332) 
USER_CHARGES

>  <solvdG>  (332) 
-2.4

>  <fdG>  (332) 
-2.96

>  <fname>  (332) 
mobley_5263791

>  <cname>  (332) 
 1-ethylnaphthalene

>  <dataset>  (332) 
FreeSolv

$$$$
2-nitrooxyethyl nitrate
     RDKit          3D

 14 13  0  0  0  0  0  0  0  0999 V2000
   -2.1461   -0.1936   -0.1209 C   0  0  0  0  0  0  0  0  0  0  0  0
   -0.8936    0.4506    0.4416 C   0  0  0  0  0  0  0  0  0  0  0  0
   -0.8122    1.7920   -0.0246 O   0  0  0  0  0  0  0  0  0  0  0  0
    0.3337    2.4887    0.4486 N   0  0  0  0  0  4  0  0  0  0  0  0
    1.1094    1.8779    1.1876 O   0  0  0  0  0  0  0  0  0  0  0  0
    0.3915    3.6483    0.0377 O   0  0  0  0  0  1  0  0  0  0  0  0
   -3.2827    0.5410    0.3172 O   0  0  0  0  0  0  0  0  0  0  0  0
   -4.5157    0.0156   -0.1583 N   0  0  0  0  0  4  0  0  0  0  0  0
   -4.4715   -0.9866   -0.8754 O   0  0  0  0  0  0  0  0  0  0  0  0
   -5.4909    0.6610    0.2283 O   0  0  0  0  0  1  0  0  0  0  0  0
   -2.2509   -1.2251    0.2298 H   0  0  0  0  0  0  0  0  0  0  0  0
   -2.1275   -0.1762   -1.2145 H   0  0  0  0  0  0  0  0  0  0  0  0
    0.0049   -0.0799    0.1119 H   0  0  0  0  0  0  0  0  0  0  0  0
   -0.9307    0.4694    1.5347 H   0  0  0  0  0  0  0  0  0  0  0  0
  1  2  1  0
  2  3  1  0
  3  4  1  0
  4  5  2  0
  4  6  1  0
  1  7  1  0
  7  8  1  0
  8  9  2  0
  8 10  1  0
  1 11  1  0
  1 12  1  0
  2 13  1  0
  2 14  1  0
M  CHG  4   4   1   6  -1   8   1  10  -1
M  END
>  <_TriposChargeType>  (333) 
USER_CHARGES

>  <solvdG>  (333) 
-5.73

>  <fdG>  (333) 
-6.23

>  <fname>  (333) 
mobley_52782

>  <cname>  (333) 
 1,2-dinitroxyethane

>  <dataset>  (333) 
FreeSolv

$$$$
3-(5,6-dihydrodibenzo[1,2-d:2',1'-f][7]annulen-11-ylidene)-N,N-dimethyl-propan-1-amine
     RDKit          3D

 44 46  0  0  0  0  0  0  0  0999 V2000
    7.7567    5.1892    1.6875 C   0  0  0  0  0  0  0  0  0  0  0  0
    7.5678    4.2523    0.5806 N   0  0  0  0  0  0  0  0  0  0  0  0
    7.7285    4.9370   -0.7016 C   0  0  0  0  0  0  0  0  0  0  0  0
    6.2722    3.6338    0.6612 C   0  0  0  0  0  0  0  0  0  0  0  0
    6.1997    2.3355   -0.1368 C   0  0  0  0  0  0  0  0  0  0  0  0
    4.8474    1.6884   -0.0536 C   0  0  0  0  0  0  0  0  0  0  0  0
    4.6423    0.3588   -0.1305 C   0  0  0  0  0  0  0  0  0  0  0  0
    5.8487   -0.4922   -0.2018 C   0  0  0  0  0  0  0  0  0  0  0  0
    6.7094   -0.4296   -1.3084 C   0  0  0  0  0  0  0  0  0  0  0  0
    7.8448   -1.2373   -1.3643 C   0  0  0  0  0  0  0  0  0  0  0  0
    8.1284   -2.1133   -0.3198 C   0  0  0  0  0  0  0  0  0  0  0  0
    7.2761   -2.1855    0.7821 C   0  0  0  0  0  0  0  0  0  0  0  0
    6.1313   -1.3791    0.8503 C   0  0  0  0  0  0  0  0  0  0  0  0
    5.2055   -1.4654    2.0365 C   0  0  0  0  0  0  0  0  0  0  0  0
    3.8527   -2.0712    1.6602 C   0  0  0  0  0  0  0  0  0  0  0  0
    2.9078   -1.2747    0.7778 C   0  0  0  0  0  0  0  0  0  0  0  0
    3.2572   -0.1741   -0.0358 C   0  0  0  0  0  0  0  0  0  0  0  0
    2.2585    0.4185   -0.8401 C   0  0  0  0  0  0  0  0  0  0  0  0
    0.9427   -0.0433   -0.8304 C   0  0  0  0  0  0  0  0  0  0  0  0
    0.5971   -1.1183   -0.0266 C   0  0  0  0  0  0  0  0  0  0  0  0
    1.5701   -1.7294    0.7614 C   0  0  0  0  0  0  0  0  0  0  0  0
    7.6354    4.6716    2.6426 H   0  0  0  0  0  0  0  0  0  0  0  0
    7.0216    5.9965    1.6290 H   0  0  0  0  0  0  0  0  0  0  0  0
    8.7589    5.6242    1.6478 H   0  0  0  0  0  0  0  0  0  0  0  0
    7.5834    4.2200   -1.5025 H   0  0  0  0  0  0  0  0  0  0  0  0
    8.7276    5.3565   -0.7549 H   0  0  0  0  0  0  0  0  0  0  0  0
    6.9903    5.7289   -0.7736 H   0  0  0  0  0  0  0  0  0  0  0  0
    6.0795    3.4331    1.7200 H   0  0  0  0  0  0  0  0  0  0  0  0
    5.5326    4.3628    0.3137 H   0  0  0  0  0  0  0  0  0  0  0  0
    6.4768    2.5255   -1.1811 H   0  0  0  0  0  0  0  0  0  0  0  0
    6.9370    1.6302    0.2648 H   0  0  0  0  0  0  0  0  0  0  0  0
    3.9893    2.3405    0.0877 H   0  0  0  0  0  0  0  0  0  0  0  0
    6.5252    0.2468   -2.1318 H   0  0  0  0  0  0  0  0  0  0  0  0
    8.5137   -1.1780   -2.2186 H   0  0  0  0  0  0  0  0  0  0  0  0
    9.0200   -2.7346   -0.3597 H   0  0  0  0  0  0  0  0  0  0  0  0
    7.5190   -2.8717    1.5817 H   0  0  0  0  0  0  0  0  0  0  0  0
    5.6470   -2.1185    2.7602 H   0  0  0  0  0  0  0  0  0  0  0  0
    5.0665   -0.4849    2.4342 H   0  0  0  0  0  0  0  0  0  0  0  0
    3.9942   -3.0959    1.2040 H   0  0  0  0  0  0  0  0  0  0  0  0
    3.3107   -2.3232    2.6172 H   0  0  0  0  0  0  0  0  0  0  0  0
    2.5114    1.2641   -1.4883 H   0  0  0  0  0  0  0  0  0  0  0  0
    0.1943    0.4403   -1.4500 H   0  0  0  0  0  0  0  0  0  0  0  0
   -0.4243   -1.4819   -0.0074 H   0  0  0  0  0  0  0  0  0  0  0  0
    1.2829   -2.5825    1.3841 H   0  0  0  0  0  0  0  0  0  0  0  0
  1  2  1  0
  2  3  1  0
  2  4  1  0
  4  5  1  0
  5  6  1  0
  6  7  2  3
  7 17  1  0
  7  8  1  0
  8 13  2  0
  8  9  1  0
  9 10  2  0
 10 11  1  0
 11 12  2  0
 12 13  1  0
 13 14  1  0
 14 15  1  0
 15 16  1  0
 16 21  1  0
 16 17  2  0
 17 18  1  0
 18 19  2  0
 19 20  1  0
 20 21  2  0
  1 22  1  0
  1 23  1  0
  1 24  1  0
  3 25  1  0
  3 26  1  0
  3 27  1  0
  4 28  1  0
  4 29  1  0
  5 30  1  0
  5 31  1  0
  6 32  1  0
  9 33  1  0
 10 34  1  0
 11 35  1  0
 12 36  1  0
 14 37  1  0
 14 38  1  0
 15 39  1  0
 15 40  1  0
 18 41  1  0
 19 42  1  0
 20 43  1  0
 21 44  1  0
M  END
>  <_TriposChargeType>  (334) 
USER_CHARGES

>  <solvdG>  (334) 
-7.43

>  <fdG>  (334) 
-7.35

>  <fname>  (334) 
mobley_5282042

>  <cname>  (334) 
 Amitriptyline

>  <dataset>  (334) 
FreeSolv

$$$$
1,4-dichlorobutane
     RDKit          3D

 14 13  0  0  0  0  0  0  0  0999 V2000
    0.5769    0.5054   -0.0200 C   0  0  0  0  0  0  0  0  0  0  0  0
   -0.6108   -0.4634    0.0323 C   0  0  0  0  0  0  0  0  0  0  0  0
   -0.7919   -1.1165    1.3996 C   0  0  0  0  0  0  0  0  0  0  0  0
   -2.1761   -2.2332    1.4275 Cl  0  0  0  0  0  0  0  0  0  0  0  0
    0.7581    1.1587   -1.3873 C   0  0  0  0  0  0  0  0  0  0  0  0
    2.1423    2.2753   -1.4151 Cl  0  0  0  0  0  0  0  0  0  0  0  0
    1.5032   -0.0071    0.2641 H   0  0  0  0  0  0  0  0  0  0  0  0
    0.4173    1.3008    0.7186 H   0  0  0  0  0  0  0  0  0  0  0  0
   -0.5050   -1.2420   -0.7319 H   0  0  0  0  0  0  0  0  0  0  0  0
   -1.5284    0.0889   -0.2051 H   0  0  0  0  0  0  0  0  0  0  0  0
    0.1007   -1.6782    1.6915 H   0  0  0  0  0  0  0  0  0  0  0  0
   -0.9782   -0.3516    2.1593 H   0  0  0  0  0  0  0  0  0  0  0  0
    0.9148    0.4076   -2.1674 H   0  0  0  0  0  0  0  0  0  0  0  0
   -0.1318    1.7400   -1.6465 H   0  0  0  0  0  0  0  0  0  0  0  0
  1  2  1  0
  2  3  1  0
  3  4  1  0
  1  5  1  0
  5  6  1  0
  1  7  1  0
  1  8  1  0
  2  9  1  0
  2 10  1  0
  3 11  1  0
  3 12  1  0
  5 13  1  0
  5 14  1  0
M  END
>  <_TriposChargeType>  (335) 
USER_CHARGES

>  <solvdG>  (335) 
-2.32

>  <fdG>  (335) 
-0.4

>  <fname>  (335) 
mobley_5286200

>  <cname>  (335) 
 1,4-dichlorobutane

>  <dataset>  (335) 
FreeSolv

$$$$
hex-1-ene
     RDKit          3D

 18 17  0  0  0  0  0  0  0  0999 V2000
   -1.0511    2.6150    5.4664 C   0  0  0  0  0  0  0  0  0  0  0  0
   -1.0224    2.7714    3.9544 C   0  0  0  0  0  0  0  0  0  0  0  0
    0.0871    1.9285    3.3247 C   0  0  0  0  0  0  0  0  0  0  0  0
    0.1112    2.0898    1.8034 C   0  0  0  0  0  0  0  0  0  0  0  0
    1.1995    1.2630    1.1850 C   0  0  0  0  0  0  0  0  0  0  0  0
    0.9849    0.2958    0.2863 C   0  0  0  0  0  0  0  0  0  0  0  0
   -1.8478    3.2215    5.9087 H   0  0  0  0  0  0  0  0  0  0  0  0
   -0.0988    2.9374    5.8989 H   0  0  0  0  0  0  0  0  0  0  0  0
   -1.2165    1.5706    5.7496 H   0  0  0  0  0  0  0  0  0  0  0  0
   -1.9944    2.4742    3.5438 H   0  0  0  0  0  0  0  0  0  0  0  0
   -0.8740    3.8285    3.7051 H   0  0  0  0  0  0  0  0  0  0  0  0
    1.0559    2.2258    3.7459 H   0  0  0  0  0  0  0  0  0  0  0  0
   -0.0638    0.8726    3.5831 H   0  0  0  0  0  0  0  0  0  0  0  0
   -0.8667    1.8172    1.3881 H   0  0  0  0  0  0  0  0  0  0  0  0
    0.2846    3.1411    1.5442 H   0  0  0  0  0  0  0  0  0  0  0  0
    2.2219    1.4778    1.4851 H   0  0  0  0  0  0  0  0  0  0  0  0
    1.8168   -0.2635   -0.1275 H   0  0  0  0  0  0  0  0  0  0  0  0
   -0.0150    0.0450   -0.0499 H   0  0  0  0  0  0  0  0  0  0  0  0
  1  2  1  0
  2  3  1  0
  3  4  1  0
  4  5  1  0
  5  6  2  3
  1  7  1  0
  1  8  1  0
  1  9  1  0
  2 10  1  0
  2 11  1  0
  3 12  1  0
  3 13  1  0
  4 14  1  0
  4 15  1  0
  5 16  1  0
  6 17  1  0
  6 18  1  0
M  END
>  <_TriposChargeType>  (336) 
USER_CHARGES

>  <solvdG>  (336) 
1.58

>  <fdG>  (336) 
2.63

>  <fname>  (336) 
mobley_5310099

>  <cname>  (336) 
 hex-1-ene

>  <dataset>  (336) 
FreeSolv

$$$$
phenylmethanol
     RDKit          3D

 16 16  0  0  0  0  0  0  0  0999 V2000
    1.8851   -1.0363   -0.1124 C   0  0  0  0  0  0  0  0  0  0  0  0
    2.9210   -1.6309    0.6081 C   0  0  0  0  0  0  0  0  0  0  0  0
    2.8783   -1.6520    2.0022 C   0  0  0  0  0  0  0  0  0  0  0  0
    1.7997   -1.0786    2.6757 C   0  0  0  0  0  0  0  0  0  0  0  0
    0.7638   -0.4841    1.9551 C   0  0  0  0  0  0  0  0  0  0  0  0
    0.8066   -0.4630    0.5610 C   0  0  0  0  0  0  0  0  0  0  0  0
    1.7548   -1.1014    4.1663 C   0  0  0  0  0  0  0  0  0  0  0  0
    1.0927   -2.2828    4.6009 O   0  0  0  0  0  0  0  0  0  0  0  0
    1.9176   -1.0210   -1.1980 H   0  0  0  0  0  0  0  0  0  0  0  0
    3.7604   -2.0783    0.0841 H   0  0  0  0  0  0  0  0  0  0  0  0
    3.6899   -2.1173    2.5553 H   0  0  0  0  0  0  0  0  0  0  0  0
   -0.0804   -0.0348    2.4713 H   0  0  0  0  0  0  0  0  0  0  0  0
   -0.0006   -0.0010    0.0001 H   0  0  0  0  0  0  0  0  0  0  0  0
    2.7649   -1.0862    4.5980 H   0  0  0  0  0  0  0  0  0  0  0  0
    1.2154   -0.2292    4.5603 H   0  0  0  0  0  0  0  0  0  0  0  0
    1.0854   -2.2578    5.5711 H   0  0  0  0  0  0  0  0  0  0  0  0
  1  6  2  0
  1  2  1  0
  2  3  2  0
  3  4  1  0
  4  5  2  0
  5  6  1  0
  4  7  1  0
  7  8  1  0
  1  9  1  0
  2 10  1  0
  3 11  1  0
  5 12  1  0
  6 13  1  0
  7 14  1  0
  7 15  1  0
  8 16  1  0
M  END
>  <_TriposChargeType>  (337) 
USER_CHARGES

>  <solvdG>  (337) 
-6.62

>  <fdG>  (337) 
-5.13

>  <fname>  (337) 
mobley_5311804

>  <cname>  (337) 
 phenylmethanol

>  <dataset>  (337) 
FreeSolv

$$$$
N,N-dimethylaniline
     RDKit          3D

 20 20  0  0  0  0  0  0  0  0999 V2000
    3.2013   -0.9778   -2.2318 C   0  0  0  0  0  0  0  0  0  0  0  0
    1.9290   -1.0140   -1.5220 N   0  0  0  0  0  0  0  0  0  0  0  0
    0.7036   -1.0405   -2.3105 C   0  0  0  0  0  0  0  0  0  0  0  0
    1.8851   -1.0363   -0.1124 C   0  0  0  0  0  0  0  0  0  0  0  0
    2.9210   -1.6309    0.6081 C   0  0  0  0  0  0  0  0  0  0  0  0
    2.8783   -1.6520    2.0022 C   0  0  0  0  0  0  0  0  0  0  0  0
    1.7997   -1.0786    2.6757 C   0  0  0  0  0  0  0  0  0  0  0  0
    0.7638   -0.4841    1.9551 C   0  0  0  0  0  0  0  0  0  0  0  0
    0.8066   -0.4630    0.5610 C   0  0  0  0  0  0  0  0  0  0  0  0
    4.0292   -0.9609   -1.5183 H   0  0  0  0  0  0  0  0  0  0  0  0
    3.2589   -0.0841   -2.8590 H   0  0  0  0  0  0  0  0  0  0  0  0
    3.3038   -1.8603   -2.8691 H   0  0  0  0  0  0  0  0  0  0  0  0
   -0.1504   -1.0659   -1.6396 H   0  0  0  0  0  0  0  0  0  0  0  0
    0.7027   -1.9257   -2.9406 H   0  0  0  0  0  0  0  0  0  0  0  0
    0.6578   -0.1495   -2.9306 H   0  0  0  0  0  0  0  0  0  0  0  0
    3.7666   -2.0796    0.0935 H   0  0  0  0  0  0  0  0  0  0  0  0
    3.6851   -2.1139    2.5639 H   0  0  0  0  0  0  0  0  0  0  0  0
    1.7657   -1.0953    3.7611 H   0  0  0  0  0  0  0  0  0  0  0  0
   -0.0755   -0.0368    2.4794 H   0  0  0  0  0  0  0  0  0  0  0  0
   -0.0061    0.0030    0.0092 H   0  0  0  0  0  0  0  0  0  0  0  0
  1  2  1  0
  2  3  1  0
  2  4  1  0
  4  9  2  0
  4  5  1  0
  5  6  2  0
  6  7  1  0
  7  8  2  0
  8  9  1  0
  1 10  1  0
  1 11  1  0
  1 12  1  0
  3 13  1  0
  3 14  1  0
  3 15  1  0
  5 16  1  0
  6 17  1  0
  7 18  1  0
  8 19  1  0
  9 20  1  0
M  END
>  <_TriposChargeType>  (338) 
USER_CHARGES

>  <solvdG>  (338) 
-3.45

>  <fdG>  (338) 
-4.43

>  <fname>  (338) 
mobley_5326154

>  <cname>  (338) 
 N,N-dimethylaniline

>  <dataset>  (338) 
FreeSolv

$$$$
3,3-dimethylbutan-2-one
     RDKit          3D

 19 18  0  0  0  0  0  0  0  0999 V2000
   -0.6286   -0.3787   -0.5367 C   0  0  0  0  0  0  0  0  0  0  0  0
   -1.9541   -0.8993   -0.0332 C   0  0  0  0  0  0  0  0  0  0  0  0
   -2.8917   -1.0445   -0.8212 O   0  0  0  0  0  0  0  0  0  0  0  0
   -2.0979   -1.2116    1.4689 C   0  0  0  0  0  0  0  0  0  0  0  0
   -1.8402    0.0713    2.2688 C   0  0  0  0  0  0  0  0  0  0  0  0
   -1.1119   -2.3073    1.8941 C   0  0  0  0  0  0  0  0  0  0  0  0
   -3.5277   -1.7025    1.7550 C   0  0  0  0  0  0  0  0  0  0  0  0
   -0.6188    0.7133   -0.4690 H   0  0  0  0  0  0  0  0  0  0  0  0
    0.1902   -0.7629    0.0745 H   0  0  0  0  0  0  0  0  0  0  0  0
   -0.4898   -0.6627   -1.5822 H   0  0  0  0  0  0  0  0  0  0  0  0
   -1.9310   -0.0990    3.3470 H   0  0  0  0  0  0  0  0  0  0  0  0
   -0.8299    0.4546    2.0852 H   0  0  0  0  0  0  0  0  0  0  0  0
   -2.5538    0.8575    1.9981 H   0  0  0  0  0  0  0  0  0  0  0  0
   -1.2011   -2.5415    2.9605 H   0  0  0  0  0  0  0  0  0  0  0  0
   -0.0764   -1.9982    1.7112 H   0  0  0  0  0  0  0  0  0  0  0  0
   -1.2893   -3.2370    1.3416 H   0  0  0  0  0  0  0  0  0  0  0  0
   -3.6608   -1.9332    2.8184 H   0  0  0  0  0  0  0  0  0  0  0  0
   -3.7581   -2.6138    1.1909 H   0  0  0  0  0  0  0  0  0  0  0  0
   -4.2713   -0.9461    1.4797 H   0  0  0  0  0  0  0  0  0  0  0  0
  1  2  1  0
  2  3  2  0
  2  4  1  0
  4  5  1  0
  4  6  1  0
  4  7  1  0
  1  8  1  0
  1  9  1  0
  1 10  1  0
  5 11  1  0
  5 12  1  0
  5 13  1  0
  6 14  1  0
  6 15  1  0
  6 16  1  0
  7 17  1  0
  7 18  1  0
  7 19  1  0
M  END
>  <_TriposChargeType>  (339) 
USER_CHARGES

>  <solvdG>  (339) 
-3.11

>  <fdG>  (339) 
-3.23

>  <fname>  (339) 
mobley_5346580

>  <cname>  (339) 
 3,3-dimethylbutan-2-one

>  <dataset>  (339) 
FreeSolv

$$$$
2,2-dichloro-1,1-difluoro-1-methoxy-ethane
     RDKit          3D

 12 11  0  0  0  0  0  0  0  0999 V2000
   -1.0890    0.3385   -1.5860 C   0  0  0  0  0  0  0  0  0  0  0  0
    0.0824    0.4878   -0.7962 O   0  0  0  0  0  0  0  0  0  0  0  0
    0.0408   -0.2867    0.3986 C   0  0  0  0  0  0  0  0  0  0  0  0
    1.3131   -0.0931    1.2065 C   0  0  0  0  0  0  0  0  0  0  0  0
    1.5258    1.6172    1.6620 Cl  0  0  0  0  0  0  0  0  0  0  0  0
    1.2789   -1.0956    2.6786 Cl  0  0  0  0  0  0  0  0  0  0  0  0
   -1.0504    0.0606    1.1231 F   0  0  0  0  0  0  0  0  0  0  0  0
   -0.0928   -1.5932    0.0559 F   0  0  0  0  0  0  0  0  0  0  0  0
   -1.0031    0.9521   -2.4861 H   0  0  0  0  0  0  0  0  0  0  0  0
   -1.9626    0.6449   -1.0053 H   0  0  0  0  0  0  0  0  0  0  0  0
   -1.1936   -0.7109   -1.8718 H   0  0  0  0  0  0  0  0  0  0  0  0
    2.1907   -0.3892    0.6247 H   0  0  0  0  0  0  0  0  0  0  0  0
  1  2  1  0
  2  3  1  0
  3  4  1  0
  4  5  1  0
  4  6  1  0
  3  7  1  0
  3  8  1  0
  1  9  1  0
  1 10  1  0
  1 11  1  0
  4 12  1  0
M  END
>  <_TriposChargeType>  (340) 
USER_CHARGES

>  <solvdG>  (340) 
-1.12

>  <fdG>  (340) 
-0.69

>  <fname>  (340) 
mobley_5347550

>  <cname>  (340) 
 2,2-dichloro-1,1-difluoro-1-methoxy-ethane

>  <dataset>  (340) 
FreeSolv

$$$$
2-chlorodibenzo-p-dioxin
     RDKit          3D

 22 24  0  0  0  0  0  0  0  0999 V2000
   -1.8584    0.7400    0.8000 C   0  0  0  0  0  0  0  0  0  0  0  0
   -1.0039   -0.2568    0.3257 C   0  0  0  0  0  0  0  0  0  0  0  0
   -1.4367   -1.5819    0.2693 C   0  0  0  0  0  0  0  0  0  0  0  0
   -2.7266   -1.9051    0.6889 C   0  0  0  0  0  0  0  0  0  0  0  0
   -3.5799   -0.9097    1.1626 C   0  0  0  0  0  0  0  0  0  0  0  0
   -3.1487    0.4152    1.2196 C   0  0  0  0  0  0  0  0  0  0  0  0
   -4.8561   -1.1828    1.5855 O   0  0  0  0  0  0  0  0  0  0  0  0
   -5.2389   -2.4982    1.5123 C   0  0  0  0  0  0  0  0  0  0  0  0
   -6.5287   -2.8214    1.9320 C   0  0  0  0  0  0  0  0  0  0  0  0
   -6.9616   -4.1465    1.8755 C   0  0  0  0  0  0  0  0  0  0  0  0
   -6.1071   -5.1433    1.4010 C   0  0  0  0  0  0  0  0  0  0  0  0
   -4.8168   -4.8184    0.9815 C   0  0  0  0  0  0  0  0  0  0  0  0
   -4.3856   -3.4936    1.0385 C   0  0  0  0  0  0  0  0  0  0  0  0
   -3.1093   -3.2205    0.6157 O   0  0  0  0  0  0  0  0  0  0  0  0
   -6.6470   -6.7762    1.3335 Cl  0  0  0  0  0  0  0  0  0  0  0  0
   -1.5178    1.7705    0.8425 H   0  0  0  0  0  0  0  0  0  0  0  0
    0.0001   -0.0000    0.0002 H   0  0  0  0  0  0  0  0  0  0  0  0
   -0.7661   -2.3524   -0.1008 H   0  0  0  0  0  0  0  0  0  0  0  0
   -3.8082    1.1962    1.5875 H   0  0  0  0  0  0  0  0  0  0  0  0
   -7.1992   -2.0509    2.3024 H   0  0  0  0  0  0  0  0  0  0  0  0
   -7.9688   -4.3890    2.2049 H   0  0  0  0  0  0  0  0  0  0  0  0
   -4.1461   -5.5897    0.6107 H   0  0  0  0  0  0  0  0  0  0  0  0
  1  6  2  0
  1  2  1  0
  2  3  2  0
  3  4  1  0
  4 14  1  0
  4  5  2  0
  5  6  1  0
  5  7  1  0
  7  8  1  0
  8 13  2  0
  8  9  1  0
  9 10  2  0
 10 11  1  0
 11 12  2  0
 12 13  1  0
 13 14  1  0
 11 15  1  0
  1 16  1  0
  2 17  1  0
  3 18  1  0
  6 19  1  0
  9 20  1  0
 10 21  1  0
 12 22  1  0
M  END
>  <_TriposChargeType>  (341) 
USER_CHARGES

>  <solvdG>  (341) 
-3.1

>  <fdG>  (341) 
-4.05

>  <fname>  (341) 
mobley_5371840

>  <cname>  (341) 
 2-chlorodibenzo-p-dioxin

>  <dataset>  (341) 
FreeSolv

$$$$
methyl butanoate
     RDKit          3D

 17 16  0  0  0  0  0  0  0  0999 V2000
   -0.3785   -0.6982    0.7531 C   0  0  0  0  0  0  0  0  0  0  0  0
    0.4050   -0.5787    2.0501 C   0  0  0  0  0  0  0  0  0  0  0  0
    1.8852   -0.8881    1.8405 C   0  0  0  0  0  0  0  0  0  0  0  0
    2.6749   -0.7723    3.1243 C   0  0  0  0  0  0  0  0  0  0  0  0
    2.2096   -0.4689    4.2142 O   0  0  0  0  0  0  0  0  0  0  0  0
    3.9847   -1.0619    2.8650 O   0  0  0  0  0  0  0  0  0  0  0  0
    4.8650   -0.9953    3.9916 C   0  0  0  0  0  0  0  0  0  0  0  0
   -1.4355   -0.4725    0.9264 H   0  0  0  0  0  0  0  0  0  0  0  0
   -0.0006    0.0012    0.0005 H   0  0  0  0  0  0  0  0  0  0  0  0
   -0.3102   -1.7121    0.3458 H   0  0  0  0  0  0  0  0  0  0  0  0
   -0.0189   -1.2648    2.7932 H   0  0  0  0  0  0  0  0  0  0  0  0
    0.2875    0.4347    2.4522 H   0  0  0  0  0  0  0  0  0  0  0  0
    2.3099   -0.1867    1.1135 H   0  0  0  0  0  0  0  0  0  0  0  0
    1.9989   -1.9095    1.4604 H   0  0  0  0  0  0  0  0  0  0  0  0
    5.8719   -1.2438    3.6636 H   0  0  0  0  0  0  0  0  0  0  0  0
    4.5199   -1.6975    4.7473 H   0  0  0  0  0  0  0  0  0  0  0  0
    4.8392    0.0189    4.3837 H   0  0  0  0  0  0  0  0  0  0  0  0
  1  2  1  0
  2  3  1  0
  3  4  1  0
  4  5  2  0
  4  6  1  0
  6  7  1  0
  1  8  1  0
  1  9  1  0
  1 10  1  0
  2 11  1  0
  2 12  1  0
  3 13  1  0
  3 14  1  0
  7 15  1  0
  7 16  1  0
  7 17  1  0
M  END
>  <_TriposChargeType>  (342) 
USER_CHARGES

>  <solvdG>  (342) 
-2.83

>  <fdG>  (342) 
-3.55

>  <fname>  (342) 
mobley_5390332

>  <cname>  (342) 
 methyl butanoate

>  <dataset>  (342) 
FreeSolv

$$$$
diethoxy-(2-isopropyl-6-methyl-pyrimidin-4-yl)oxy-thioxo-$l^{5}-phosphane
     RDKit          3D

 40 40  0  0  0  0  0  0  0  0999 V2000
   -4.1334    1.7908   -0.4518 C   0  0  0  0  0  0  0  0  0  0  0  0
   -2.9949    0.7932   -0.4335 C   0  0  0  0  0  0  0  0  0  0  0  0
   -2.4744    0.6624   -1.7458 O   0  0  0  0  0  0  0  0  0  0  0  0
   -1.2319   -0.3520   -2.0276 P   0  0  0  0  0  5  0  0  0  0  0  0
   -1.5516   -2.2286   -1.6034 S   0  0  0  0  0  0  0  0  0  0  0  0
   -0.0316    0.4002   -1.2271 O   0  0  0  0  0  0  0  0  0  0  0  0
    1.3184    0.1047   -1.5423 C   0  0  0  0  0  0  0  0  0  0  0  0
    2.2264    0.9347   -0.6588 C   0  0  0  0  0  0  0  0  0  0  0  0
   -0.8843    0.0037   -3.5707 O   0  0  0  0  0  0  0  0  0  0  0  0
   -1.7272   -0.1140   -4.6428 C   0  0  0  0  0  0  0  0  0  0  0  0
   -1.2719    0.2334   -5.8983 C   0  0  0  0  0  0  0  0  0  0  0  0
   -2.1820    0.0861   -6.9252 C   0  0  0  0  0  0  0  0  0  0  0  0
   -3.4417   -0.3647   -6.7515 N   0  0  0  0  0  0  0  0  0  0  0  0
   -3.7656   -0.6705   -5.4807 C   0  0  0  0  0  0  0  0  0  0  0  0
   -2.9726   -0.5711   -4.3969 N   0  0  0  0  0  0  0  0  0  0  0  0
   -5.1504   -1.1726   -5.2489 C   0  0  0  0  0  0  0  0  0  0  0  0
   -5.9481   -0.2761   -4.2829 C   0  0  0  0  0  0  0  0  0  0  0  0
   -5.1729   -2.6293   -4.7480 C   0  0  0  0  0  0  0  0  0  0  0  0
   -1.7810    0.4365   -8.3187 C   0  0  0  0  0  0  0  0  0  0  0  0
   -4.5589    1.9157    0.5479 H   0  0  0  0  0  0  0  0  0  0  0  0
   -3.7873    2.7649   -0.8129 H   0  0  0  0  0  0  0  0  0  0  0  0
   -4.9243    1.4613   -1.1337 H   0  0  0  0  0  0  0  0  0  0  0  0
   -3.3478   -0.1856   -0.0952 H   0  0  0  0  0  0  0  0  0  0  0  0
   -2.1954    1.1350    0.2305 H   0  0  0  0  0  0  0  0  0  0  0  0
    1.4957   -0.9629   -1.3769 H   0  0  0  0  0  0  0  0  0  0  0  0
    1.4952    0.3364   -2.5976 H   0  0  0  0  0  0  0  0  0  0  0  0
    3.2784    0.7305   -0.8767 H   0  0  0  0  0  0  0  0  0  0  0  0
    2.0357    2.0029   -0.8060 H   0  0  0  0  0  0  0  0  0  0  0  0
    2.0365    0.7202    0.3981 H   0  0  0  0  0  0  0  0  0  0  0  0
   -0.2655    0.5976   -6.0636 H   0  0  0  0  0  0  0  0  0  0  0  0
   -5.7149   -1.1706   -6.2009 H   0  0  0  0  0  0  0  0  0  0  0  0
   -6.9623   -0.6580   -4.1231 H   0  0  0  0  0  0  0  0  0  0  0  0
   -6.0348    0.7470   -4.6647 H   0  0  0  0  0  0  0  0  0  0  0  0
   -5.4517   -0.2288   -3.3072 H   0  0  0  0  0  0  0  0  0  0  0  0
   -6.2044   -2.9630   -4.5891 H   0  0  0  0  0  0  0  0  0  0  0  0
   -4.6365   -2.7350   -3.7987 H   0  0  0  0  0  0  0  0  0  0  0  0
   -4.7087   -3.3108   -5.4692 H   0  0  0  0  0  0  0  0  0  0  0  0
   -1.3541   -0.4381   -8.8242 H   0  0  0  0  0  0  0  0  0  0  0  0
   -2.6398    0.7916   -8.9027 H   0  0  0  0  0  0  0  0  0  0  0  0
   -1.0356    1.2423   -8.3277 H   0  0  0  0  0  0  0  0  0  0  0  0
  1  2  1  0
  2  3  1  0
  3  4  1  0
  4  5  2  0
  4  6  1  0
  6  7  1  0
  7  8  1  0
  4  9  1  0
  9 10  1  0
 10 15  2  0
 10 11  1  0
 11 12  2  0
 12 13  1  0
 13 14  2  0
 14 15  1  0
 14 16  1  0
 16 17  1  0
 16 18  1  0
 12 19  1  0
  1 20  1  0
  1 21  1  0
  1 22  1  0
  2 23  1  0
  2 24  1  0
  7 25  1  0
  7 26  1  0
  8 27  1  0
  8 28  1  0
  8 29  1  0
 11 30  1  0
 16 31  1  0
 17 32  1  0
 17 33  1  0
 17 34  1  0
 18 35  1  0
 18 36  1  0
 18 37  1  0
 19 38  1  0
 19 39  1  0
 19 40  1  0
M  END
>  <_TriposChargeType>  (343) 
USER_CHARGES

>  <solvdG>  (343) 
-6.48

>  <fdG>  (343) 
-10.75

>  <fname>  (343) 
mobley_5393242

>  <cname>  (343) 
 diazinon

>  <dataset>  (343) 
FreeSolv

$$$$
cumene
     RDKit          3D

 21 21  0  0  0  0  0  0  0  0999 V2000
    2.6353    0.2404   -2.1257 C   0  0  0  0  0  0  0  0  0  0  0  0
    1.9309   -1.0140   -1.6029 C   0  0  0  0  0  0  0  0  0  0  0  0
    0.5326   -1.1476   -2.2112 C   0  0  0  0  0  0  0  0  0  0  0  0
    1.8851   -1.0363   -0.1124 C   0  0  0  0  0  0  0  0  0  0  0  0
    2.9210   -1.6309    0.6081 C   0  0  0  0  0  0  0  0  0  0  0  0
    2.8783   -1.6520    2.0022 C   0  0  0  0  0  0  0  0  0  0  0  0
    1.7997   -1.0786    2.6757 C   0  0  0  0  0  0  0  0  0  0  0  0
    0.7638   -0.4841    1.9551 C   0  0  0  0  0  0  0  0  0  0  0  0
    0.8066   -0.4630    0.5610 C   0  0  0  0  0  0  0  0  0  0  0  0
    3.6389    0.3540   -1.7015 H   0  0  0  0  0  0  0  0  0  0  0  0
    2.0626    1.1383   -1.8692 H   0  0  0  0  0  0  0  0  0  0  0  0
    2.7357    0.2071   -3.2163 H   0  0  0  0  0  0  0  0  0  0  0  0
    2.5149   -1.8778   -1.9473 H   0  0  0  0  0  0  0  0  0  0  0  0
    0.0273   -2.0452   -1.8377 H   0  0  0  0  0  0  0  0  0  0  0  0
    0.5937   -1.2268   -3.3021 H   0  0  0  0  0  0  0  0  0  0  0  0
   -0.1009   -0.2853   -1.9759 H   0  0  0  0  0  0  0  0  0  0  0  0
    3.7649   -2.0803    0.0915 H   0  0  0  0  0  0  0  0  0  0  0  0
    3.6850   -2.1148    2.5632 H   0  0  0  0  0  0  0  0  0  0  0  0
    1.7662   -1.0949    3.7611 H   0  0  0  0  0  0  0  0  0  0  0  0
   -0.0762   -0.0382    2.4794 H   0  0  0  0  0  0  0  0  0  0  0  0
   -0.0050    0.0028    0.0083 H   0  0  0  0  0  0  0  0  0  0  0  0
  1  2  1  0
  2  3  1  0
  2  4  1  0
  4  9  2  0
  4  5  1  0
  5  6  2  0
  6  7  1  0
  7  8  2  0
  8  9  1  0
  1 10  1  0
  1 11  1  0
  1 12  1  0
  2 13  1  0
  3 14  1  0
  3 15  1  0
  3 16  1  0
  5 17  1  0
  6 18  1  0
  7 19  1  0
  8 20  1  0
  9 21  1  0
M  END
>  <_TriposChargeType>  (344) 
USER_CHARGES

>  <solvdG>  (344) 
-0.3

>  <fdG>  (344) 
-0.67

>  <fname>  (344) 
mobley_5445548

>  <cname>  (344) 
 cumene

>  <dataset>  (344) 
FreeSolv

$$$$
pentane
     RDKit          3D

 17 16  0  0  0  0  0  0  0  0999 V2000
   -0.5110    0.9039   -0.3450 C   0  0  0  0  0  0  0  0  0  0  0  0
   -0.5701    0.9512   -1.8635 C   0  0  0  0  0  0  0  0  0  0  0  0
    0.8290    0.9520   -2.4788 C   0  0  0  0  0  0  0  0  0  0  0  0
    0.7651    0.9996   -4.0051 C   0  0  0  0  0  0  0  0  0  0  0  0
    2.1551    1.0005   -4.6212 C   0  0  0  0  0  0  0  0  0  0  0  0
   -1.5168    0.9037    0.0869 H   0  0  0  0  0  0  0  0  0  0  0  0
    0.0341    1.7656    0.0533 H   0  0  0  0  0  0  0  0  0  0  0  0
    0.0012   -0.0049   -0.0138 H   0  0  0  0  0  0  0  0  0  0  0  0
   -1.1370    0.0868   -2.2283 H   0  0  0  0  0  0  0  0  0  0  0  0
   -1.1142    1.8507   -2.1742 H   0  0  0  0  0  0  0  0  0  0  0  0
    1.3706    0.0525   -2.1614 H   0  0  0  0  0  0  0  0  0  0  0  0
    1.3933    1.8162   -2.1076 H   0  0  0  0  0  0  0  0  0  0  0  0
    0.2054    0.1355   -4.3818 H   0  0  0  0  0  0  0  0  0  0  0  0
    0.2283    1.8995   -4.3275 H   0  0  0  0  0  0  0  0  0  0  0  0
    2.0999    1.0347   -5.7140 H   0  0  0  0  0  0  0  0  0  0  0  0
    2.6965    0.0928   -4.3368 H   0  0  0  0  0  0  0  0  0  0  0  0
    2.7352    1.8635   -4.2791 H   0  0  0  0  0  0  0  0  0  0  0  0
  1  2  1  0
  2  3  1  0
  3  4  1  0
  4  5  1  0
  1  6  1  0
  1  7  1  0
  1  8  1  0
  2  9  1  0
  2 10  1  0
  3 11  1  0
  3 12  1  0
  4 13  1  0
  4 14  1  0
  5 15  1  0
  5 16  1  0
  5 17  1  0
M  END
>  <_TriposChargeType>  (345) 
USER_CHARGES

>  <solvdG>  (345) 
2.3

>  <fdG>  (345) 
2.67

>  <fname>  (345) 
mobley_5449201

>  <cname>  (345) 
 n-pentane

>  <dataset>  (345) 
FreeSolv

$$$$
1,2,3,4,5-pentachloro-6-(2,3,4,5,6-pentachlorophenyl)benzene
     RDKit          3D

 22 23  0  0  0  0  0  0  0  0999 V2000
    1.8851   -1.0363   -0.1124 C   0  0  0  0  0  0  0  0  0  0  0  0
    2.9210   -1.6309    0.6081 C   0  0  0  0  0  0  0  0  0  0  0  0
    2.8783   -1.6520    2.0022 C   0  0  0  0  0  0  0  0  0  0  0  0
    1.7997   -1.0786    2.6757 C   0  0  0  0  0  0  0  0  0  0  0  0
    0.7638   -0.4841    1.9551 C   0  0  0  0  0  0  0  0  0  0  0  0
    0.8066   -0.4630    0.5610 C   0  0  0  0  0  0  0  0  0  0  0  0
   -0.4830    0.2773   -0.3508 Cl  0  0  0  0  0  0  0  0  0  0  0  0
   -0.5846    0.2338    2.7946 Cl  0  0  0  0  0  0  0  0  0  0  0  0
    1.7475   -1.1035    4.4183 Cl  0  0  0  0  0  0  0  0  0  0  0  0
    4.1753   -2.3942    2.9003 Cl  0  0  0  0  0  0  0  0  0  0  0  0
    4.2636   -2.3453   -0.2451 Cl  0  0  0  0  0  0  0  0  0  0  0  0
    1.9292   -1.0158   -1.5692 C   0  0  0  0  0  0  0  0  0  0  0  0
    2.5329    0.0519   -2.2335 C   0  0  0  0  0  0  0  0  0  0  0  0
    2.5739    0.0725   -3.6276 C   0  0  0  0  0  0  0  0  0  0  0  0
    2.0111   -0.9745   -4.3575 C   0  0  0  0  0  0  0  0  0  0  0  0
    1.4074   -2.0422   -3.6932 C   0  0  0  0  0  0  0  0  0  0  0  0
    1.3664   -2.0628   -2.2990 C   0  0  0  0  0  0  0  0  0  0  0  0
    0.6140   -3.3923   -1.4573 Cl  0  0  0  0  0  0  0  0  0  0  0  0
    0.7042   -3.3522   -4.6031 Cl  0  0  0  0  0  0  0  0  0  0  0  0
    2.0642   -0.9494   -6.1001 Cl  0  0  0  0  0  0  0  0  0  0  0  0
    3.3308    1.4074   -4.4552 Cl  0  0  0  0  0  0  0  0  0  0  0  0
    3.2321    1.3556   -1.3102 Cl  0  0  0  0  0  0  0  0  0  0  0  0
  1  6  1  0
  1  2  2  0
  2  3  1  0
  3  4  2  0
  4  5  1  0
  5  6  2  0
  6  7  1  0
  5  8  1  0
  4  9  1  0
  3 10  1  0
  2 11  1  0
  1 12  1  0
 12 17  1  0
 12 13  2  0
 13 14  1  0
 14 15  2  0
 15 16  1  0
 16 17  2  0
 17 18  1  0
 16 19  1  0
 15 20  1  0
 14 21  1  0
 13 22  1  0
M  END
>  <_TriposChargeType>  (346) 
USER_CHARGES

>  <solvdG>  (346) 
-2.98

>  <fdG>  (346) 
0.76

>  <fname>  (346) 
mobley_5456566

>  <cname>  (346) 
 1,2,3,4,5-pentachloro-6-(2,3,4,5,6-pentachlorophenyl)benzene

>  <dataset>  (346) 
FreeSolv

$$$$
4-tert-butylphenol
     RDKit          3D

 25 25  0  0  0  0  0  0  0  0999 V2000
   -1.0055    0.0255   -0.4341 C   0  0  0  0  0  0  0  0  0  0  0  0
   -2.0904    0.3299    0.6216 C   0  0  0  0  0  0  0  0  0  0  0  0
   -1.7775    1.6835    1.2954 C   0  0  0  0  0  0  0  0  0  0  0  0
   -3.4286    0.4950   -0.1338 C   0  0  0  0  0  0  0  0  0  0  0  0
   -2.1077   -0.7840    1.6815 C   0  0  0  0  0  0  0  0  0  0  0  0
   -3.2653   -1.5350    1.8859 C   0  0  0  0  0  0  0  0  0  0  0  0
   -3.2810   -2.5441    2.8487 C   0  0  0  0  0  0  0  0  0  0  0  0
   -2.1392   -2.8023    3.6072 C   0  0  0  0  0  0  0  0  0  0  0  0
   -0.9816   -2.0513    3.4027 C   0  0  0  0  0  0  0  0  0  0  0  0
   -0.9659   -1.0422    2.4399 C   0  0  0  0  0  0  0  0  0  0  0  0
   -2.1548   -3.7864    4.5473 O   0  0  0  0  0  0  0  0  0  0  0  0
   -1.1973   -0.9314   -0.9335 H   0  0  0  0  0  0  0  0  0  0  0  0
   -0.9617    0.7913   -1.2163 H   0  0  0  0  0  0  0  0  0  0  0  0
   -0.0121   -0.0317    0.0264 H   0  0  0  0  0  0  0  0  0  0  0  0
   -2.5193    1.9491    2.0564 H   0  0  0  0  0  0  0  0  0  0  0  0
   -0.8014    1.6605    1.7942 H   0  0  0  0  0  0  0  0  0  0  0  0
   -1.7566    2.4953    0.5588 H   0  0  0  0  0  0  0  0  0  0  0  0
   -4.2493    0.7145    0.5597 H   0  0  0  0  0  0  0  0  0  0  0  0
   -3.3865    1.3206   -0.8538 H   0  0  0  0  0  0  0  0  0  0  0  0
   -3.7011   -0.4179   -0.6762 H   0  0  0  0  0  0  0  0  0  0  0  0
   -4.1592   -1.3415    1.2988 H   0  0  0  0  0  0  0  0  0  0  0  0
   -4.1858   -3.1260    3.0033 H   0  0  0  0  0  0  0  0  0  0  0  0
   -0.0888   -2.2479    3.9904 H   0  0  0  0  0  0  0  0  0  0  0  0
   -0.0592   -0.4628    2.2868 H   0  0  0  0  0  0  0  0  0  0  0  0
   -1.2921   -3.8441    4.9882 H   0  0  0  0  0  0  0  0  0  0  0  0
  1  2  1  0
  2  3  1  0
  2  4  1  0
  2  5  1  0
  5 10  2  0
  5  6  1  0
  6  7  2  0
  7  8  1  0
  8  9  2  0
  9 10  1  0
  8 11  1  0
  1 12  1  0
  1 13  1  0
  1 14  1  0
  3 15  1  0
  3 16  1  0
  3 17  1  0
  4 18  1  0
  4 19  1  0
  4 20  1  0
  6 21  1  0
  7 22  1  0
  9 23  1  0
 10 24  1  0
 11 25  1  0
M  END
>  <_TriposChargeType>  (347) 
USER_CHARGES

>  <solvdG>  (347) 
-5.91

>  <fdG>  (347) 
-5.54

>  <fname>  (347) 
mobley_5467162

>  <cname>  (347) 
 4-tert-butylphenol

>  <dataset>  (347) 
FreeSolv

$$$$
isopentyl acetate
     RDKit          3D

 23 22  0  0  0  0  0  0  0  0999 V2000
   -0.2765   -3.2843   -0.8538 C   0  0  0  0  0  0  0  0  0  0  0  0
   -0.6860   -1.8165   -0.9949 C   0  0  0  0  0  0  0  0  0  0  0  0
    0.0168   -0.9791    0.0745 C   0  0  0  0  0  0  0  0  0  0  0  0
   -0.3808   -1.3238   -2.4187 C   0  0  0  0  0  0  0  0  0  0  0  0
   -1.1136   -2.0995   -3.5067 C   0  0  0  0  0  0  0  0  0  0  0  0
   -0.7556   -1.5583   -4.7723 O   0  0  0  0  0  0  0  0  0  0  0  0
   -1.3358   -2.1521   -5.8587 C   0  0  0  0  0  0  0  0  0  0  0  0
   -2.1206   -3.0905   -5.8335 O   0  0  0  0  0  0  0  0  0  0  0  0
   -0.8695   -1.4815   -7.1153 C   0  0  0  0  0  0  0  0  0  0  0  0
   -0.7704   -3.9011   -1.6122 H   0  0  0  0  0  0  0  0  0  0  0  0
   -0.5452   -3.6794    0.1319 H   0  0  0  0  0  0  0  0  0  0  0  0
    0.8048   -3.4011   -0.9829 H   0  0  0  0  0  0  0  0  0  0  0  0
   -1.7682   -1.7520   -0.8249 H   0  0  0  0  0  0  0  0  0  0  0  0
   -0.2593    0.0779   -0.0040 H   0  0  0  0  0  0  0  0  0  0  0  0
    1.1049   -1.0522   -0.0285 H   0  0  0  0  0  0  0  0  0  0  0  0
   -0.2365   -1.3244    1.0813 H   0  0  0  0  0  0  0  0  0  0  0  0
    0.6985   -1.3957   -2.6079 H   0  0  0  0  0  0  0  0  0  0  0  0
   -0.6213   -0.2567   -2.5134 H   0  0  0  0  0  0  0  0  0  0  0  0
   -0.8318   -3.1570   -3.4897 H   0  0  0  0  0  0  0  0  0  0  0  0
   -2.1984   -2.0147   -3.3972 H   0  0  0  0  0  0  0  0  0  0  0  0
    0.0324   -1.9746   -7.4860 H   0  0  0  0  0  0  0  0  0  0  0  0
   -0.6784   -0.4230   -6.9218 H   0  0  0  0  0  0  0  0  0  0  0  0
   -1.6488   -1.5602   -7.8789 H   0  0  0  0  0  0  0  0  0  0  0  0
  1  2  1  0
  2  3  1  0
  2  4  1  0
  4  5  1  0
  5  6  1  0
  6  7  1  0
  7  8  2  0
  7  9  1  0
  1 10  1  0
  1 11  1  0
  1 12  1  0
  2 13  1  0
  3 14  1  0
  3 15  1  0
  3 16  1  0
  4 17  1  0
  4 18  1  0
  5 19  1  0
  5 20  1  0
  9 21  1  0
  9 22  1  0
  9 23  1  0
M  END
>  <_TriposChargeType>  (348) 
USER_CHARGES

>  <solvdG>  (348) 
-2.21

>  <fdG>  (348) 
-3.07

>  <fname>  (348) 
mobley_5471704

>  <cname>  (348) 
 isopentyl acetate

>  <dataset>  (348) 
FreeSolv

$$$$
2,3-dimethylnaphthalene
     RDKit          3D

 24 25  0  0  0  0  0  0  0  0999 V2000
   -1.8901   -1.7249    0.9335 C   0  0  0  0  0  0  0  0  0  0  0  0
   -0.4966   -2.0341    0.4940 C   0  0  0  0  0  0  0  0  0  0  0  0
   -0.0479   -3.3542    0.5448 C   0  0  0  0  0  0  0  0  0  0  0  0
    1.2560   -3.6839    0.1403 C   0  0  0  0  0  0  0  0  0  0  0  0
    1.7243   -5.0072    0.1848 C   0  0  0  0  0  0  0  0  0  0  0  0
    3.0228   -5.3167   -0.2210 C   0  0  0  0  0  0  0  0  0  0  0  0
    3.8693   -4.3100   -0.6758 C   0  0  0  0  0  0  0  0  0  0  0  0
    3.4207   -2.9899   -0.7267 C   0  0  0  0  0  0  0  0  0  0  0  0
    2.1168   -2.6602   -0.3222 C   0  0  0  0  0  0  0  0  0  0  0  0
    1.6484   -1.3369   -0.3665 C   0  0  0  0  0  0  0  0  0  0  0  0
    0.3500   -1.0275    0.0392 C   0  0  0  0  0  0  0  0  0  0  0  0
   -0.1088    0.3927   -0.0237 C   0  0  0  0  0  0  0  0  0  0  0  0
   -2.5757   -1.7983    0.0838 H   0  0  0  0  0  0  0  0  0  0  0  0
   -2.2174   -2.4203    1.7136 H   0  0  0  0  0  0  0  0  0  0  0  0
   -1.9528   -0.7152    1.3529 H   0  0  0  0  0  0  0  0  0  0  0  0
   -0.7194   -4.1330    0.9026 H   0  0  0  0  0  0  0  0  0  0  0  0
    1.0798   -5.8102    0.5362 H   0  0  0  0  0  0  0  0  0  0  0  0
    3.3727   -6.3442   -0.1807 H   0  0  0  0  0  0  0  0  0  0  0  0
    4.8801   -4.5513   -0.9918 H   0  0  0  0  0  0  0  0  0  0  0  0
    4.0998   -2.2196   -1.0862 H   0  0  0  0  0  0  0  0  0  0  0  0
    2.3009   -0.5400   -0.7199 H   0  0  0  0  0  0  0  0  0  0  0  0
   -0.5614    0.6025   -0.9997 H   0  0  0  0  0  0  0  0  0  0  0  0
   -0.8486    0.6050    0.7578 H   0  0  0  0  0  0  0  0  0  0  0  0
    0.7271    1.0861    0.1307 H   0  0  0  0  0  0  0  0  0  0  0  0
  1  2  1  0
  2 11  2  0
  2  3  1  0
  3  4  2  0
  4  9  1  0
  4  5  1  0
  5  6  2  0
  6  7  1  0
  7  8  2  0
  8  9  1  0
  9 10  2  0
 10 11  1  0
 11 12  1  0
  1 13  1  0
  1 14  1  0
  1 15  1  0
  3 16  1  0
  5 17  1  0
  6 18  1  0
  7 19  1  0
  8 20  1  0
 10 21  1  0
 12 22  1  0
 12 23  1  0
 12 24  1  0
M  END
>  <_TriposChargeType>  (349) 
USER_CHARGES

>  <solvdG>  (349) 
-2.78

>  <fdG>  (349) 
-2.95

>  <fname>  (349) 
mobley_547634

>  <cname>  (349) 
 2,3-dimethylnaphthalene

>  <dataset>  (349) 
FreeSolv

$$$$
1,1,2,3,3,3-hexafluoroprop-1-ene
     RDKit          3D

  9  8  0  0  0  0  0  0  0  0999 V2000
    0.2302    0.0259    0.4913 C   0  0  0  0  0  0  0  0  0  0  0  0
   -0.9363   -0.4461    0.9412 C   0  0  0  0  0  0  0  0  0  0  0  0
   -1.1323   -0.6692    2.2574 F   0  0  0  0  0  0  0  0  0  0  0  0
   -1.9323   -0.7033    0.0671 F   0  0  0  0  0  0  0  0  0  0  0  0
    0.5481    0.3055   -0.9341 C   0  0  0  0  0  0  0  0  0  0  0  0
    1.8040    0.7802   -1.1293 F   0  0  0  0  0  0  0  0  0  0  0  0
    0.4302   -0.8131   -1.6937 F   0  0  0  0  0  0  0  0  0  0  0  0
   -0.3028    1.2244   -1.4574 F   0  0  0  0  0  0  0  0  0  0  0  0
    1.1998    0.2690    1.4040 F   0  0  0  0  0  0  0  0  0  0  0  0
  1  2  2  3
  2  3  1  0
  2  4  1  0
  1  5  1  0
  5  6  1  0
  5  7  1  0
  5  8  1  0
  1  9  1  0
M  END
>  <_TriposChargeType>  (350) 
USER_CHARGES

>  <solvdG>  (350) 
2.93

>  <fdG>  (350) 
2.31

>  <fname>  (350) 
mobley_5494918

>  <cname>  (350) 
 1,1,2,3,3,3-hexafluoroprop-1-ene

>  <dataset>  (350) 
FreeSolv

$$$$
1-methylimidazole
     RDKit          3D

 12 12  0  0  0  0  0  0  0  0999 V2000
    3.6420   -2.4130   -1.7031 C   0  0  0  0  0  0  0  0  0  0  0  0
    2.3537   -2.0366   -1.1813 N   0  0  0  0  0  0  0  0  0  0  0  0
    1.9499   -0.7740   -0.8259 C   0  0  0  0  0  0  0  0  0  0  0  0
    0.6549   -0.7784   -0.3640 C   0  0  0  0  0  0  0  0  0  0  0  0
    0.2603   -2.0844   -0.4416 N   0  0  0  0  0  0  0  0  0  0  0  0
    1.3133   -2.8020   -0.9371 C   0  0  0  0  0  0  0  0  0  0  0  0
    3.5987   -2.3408   -2.7931 H   0  0  0  0  0  0  0  0  0  0  0  0
    4.4067   -1.7399   -1.3055 H   0  0  0  0  0  0  0  0  0  0  0  0
    3.8714   -3.4371   -1.3955 H   0  0  0  0  0  0  0  0  0  0  0  0
    2.6379    0.0541   -0.9336 H   0  0  0  0  0  0  0  0  0  0  0  0
    0.0268    0.0214   -0.0064 H   0  0  0  0  0  0  0  0  0  0  0  0
    1.2742   -3.8711   -1.1008 H   0  0  0  0  0  0  0  0  0  0  0  0
  1  2  1  0
  2  6  1  0
  2  3  1  0
  3  4  2  0
  4  5  1  0
  5  6  2  0
  1  7  1  0
  1  8  1  0
  1  9  1  0
  3 10  1  0
  4 11  1  0
  6 12  1  0
M  END
>  <_TriposChargeType>  (351) 
USER_CHARGES

>  <solvdG>  (351) 
-8.41

>  <fdG>  (351) 
-6.28

>  <fname>  (351) 
mobley_5499659

>  <cname>  (351) 
 1-methylimidazole

>  <dataset>  (351) 
FreeSolv

$$$$
1,1,1-trimethoxyethane
     RDKit          3D

 20 19  0  0  0  0  0  0  0  0999 V2000
    0.1455    0.0969    1.0817 C   0  0  0  0  0  0  0  0  0  0  0  0
    1.2767   -0.8256    1.5627 C   0  0  0  0  0  0  0  0  0  0  0  0
    0.7476   -2.1652    1.4376 O   0  0  0  0  0  0  0  0  0  0  0  0
    1.6591   -3.1800    1.8405 C   0  0  0  0  0  0  0  0  0  0  0  0
    1.6624   -0.5239    2.9156 O   0  0  0  0  0  0  0  0  0  0  0  0
    0.6384   -0.6535    3.8916 C   0  0  0  0  0  0  0  0  0  0  0  0
    2.3997   -0.6802    0.6665 O   0  0  0  0  0  0  0  0  0  0  0  0
    3.2139    0.4630    0.8887 C   0  0  0  0  0  0  0  0  0  0  0  0
    0.4341    1.1516    1.1317 H   0  0  0  0  0  0  0  0  0  0  0  0
   -0.1296   -0.1346    0.0466 H   0  0  0  0  0  0  0  0  0  0  0  0
   -0.7581   -0.0264    1.6890 H   0  0  0  0  0  0  0  0  0  0  0  0
    1.1874   -4.1554    1.7166 H   0  0  0  0  0  0  0  0  0  0  0  0
    1.9349   -3.0209    2.8837 H   0  0  0  0  0  0  0  0  0  0  0  0
    2.5483   -3.1198    1.2121 H   0  0  0  0  0  0  0  0  0  0  0  0
    1.0424   -0.4015    4.8734 H   0  0  0  0  0  0  0  0  0  0  0  0
    0.2645   -1.6788    3.8878 H   0  0  0  0  0  0  0  0  0  0  0  0
   -0.1724    0.0327    3.6425 H   0  0  0  0  0  0  0  0  0  0  0  0
    4.0263    0.4732    0.1606 H   0  0  0  0  0  0  0  0  0  0  0  0
    3.6145    0.4280    1.9031 H   0  0  0  0  0  0  0  0  0  0  0  0
    2.6020    1.3579    0.7671 H   0  0  0  0  0  0  0  0  0  0  0  0
  1  2  1  0
  2  3  1  0
  3  4  1  0
  2  5  1  0
  5  6  1  0
  2  7  1  0
  7  8  1  0
  1  9  1  0
  1 10  1  0
  1 11  1  0
  4 12  1  0
  4 13  1  0
  4 14  1  0
  6 15  1  0
  6 16  1  0
  6 17  1  0
  8 18  1  0
  8 19  1  0
  8 20  1  0
M  END
>  <_TriposChargeType>  (352) 
USER_CHARGES

>  <solvdG>  (352) 
-4.42

>  <fdG>  (352) 
-3.7

>  <fname>  (352) 
mobley_550662

>  <cname>  (352) 
 1,1,1-trimethoxyethane

>  <dataset>  (352) 
FreeSolv

$$$$
1,2,3,4-tetrachlorodibenzo-p-dioxin
     RDKit          3D

 22 24  0  0  0  0  0  0  0  0999 V2000
   -1.8584    0.7400    0.8000 C   0  0  0  0  0  0  0  0  0  0  0  0
   -1.0039   -0.2568    0.3257 C   0  0  0  0  0  0  0  0  0  0  0  0
   -1.4367   -1.5819    0.2693 C   0  0  0  0  0  0  0  0  0  0  0  0
   -2.7266   -1.9051    0.6889 C   0  0  0  0  0  0  0  0  0  0  0  0
   -3.5799   -0.9097    1.1626 C   0  0  0  0  0  0  0  0  0  0  0  0
   -3.1487    0.4152    1.2196 C   0  0  0  0  0  0  0  0  0  0  0  0
   -4.8561   -1.1828    1.5855 O   0  0  0  0  0  0  0  0  0  0  0  0
   -5.2389   -2.4982    1.5123 C   0  0  0  0  0  0  0  0  0  0  0  0
   -4.3856   -3.4936    1.0385 C   0  0  0  0  0  0  0  0  0  0  0  0
   -4.8168   -4.8184    0.9815 C   0  0  0  0  0  0  0  0  0  0  0  0
   -6.1071   -5.1433    1.4010 C   0  0  0  0  0  0  0  0  0  0  0  0
   -6.9616   -4.1465    1.8755 C   0  0  0  0  0  0  0  0  0  0  0  0
   -6.5287   -2.8214    1.9320 C   0  0  0  0  0  0  0  0  0  0  0  0
   -7.5652   -1.5541    2.5155 Cl  0  0  0  0  0  0  0  0  0  0  0  0
   -8.5735   -4.5517    2.3985 Cl  0  0  0  0  0  0  0  0  0  0  0  0
   -6.6450   -6.7989    1.3310 Cl  0  0  0  0  0  0  0  0  0  0  0  0
   -3.7240   -6.0323    0.3870 Cl  0  0  0  0  0  0  0  0  0  0  0  0
   -3.1093   -3.2205    0.6157 O   0  0  0  0  0  0  0  0  0  0  0  0
   -1.5177    1.7705    0.8426 H   0  0  0  0  0  0  0  0  0  0  0  0
    0.0000   -0.0000    0.0001 H   0  0  0  0  0  0  0  0  0  0  0  0
   -0.7659   -2.3527   -0.1002 H   0  0  0  0  0  0  0  0  0  0  0  0
   -3.8085    1.1963    1.5873 H   0  0  0  0  0  0  0  0  0  0  0  0
  1  6  2  0
  1  2  1  0
  2  3  2  0
  3  4  1  0
  4 18  1  0
  4  5  2  0
  5  6  1  0
  5  7  1  0
  7  8  1  0
  8 13  2  0
  8  9  1  0
  9 10  2  0
 10 11  1  0
 11 12  2  0
 12 13  1  0
 13 14  1  0
 12 15  1  0
 11 16  1  0
 10 17  1  0
  9 18  1  0
  1 19  1  0
  2 20  1  0
  3 21  1  0
  6 22  1  0
M  END
>  <_TriposChargeType>  (353) 
USER_CHARGES

>  <solvdG>  (353) 
-3.81

>  <fdG>  (353) 
-2.77

>  <fname>  (353) 
mobley_5510474

>  <cname>  (353) 
 1,2,3,4-tetrachlorodibenzo-p-dioxin

>  <dataset>  (353) 
FreeSolv

$$$$
4-methylaniline
     RDKit          3D

 17 17  0  0  0  0  0  0  0  0999 V2000
    1.9305   -1.0140   -1.6030 C   0  0  0  0  0  0  0  0  0  0  0  0
    1.8851   -1.0363   -0.1124 C   0  0  0  0  0  0  0  0  0  0  0  0
    2.9210   -1.6309    0.6081 C   0  0  0  0  0  0  0  0  0  0  0  0
    2.8783   -1.6520    2.0022 C   0  0  0  0  0  0  0  0  0  0  0  0
    1.7997   -1.0786    2.6757 C   0  0  0  0  0  0  0  0  0  0  0  0
    0.7638   -0.4841    1.9551 C   0  0  0  0  0  0  0  0  0  0  0  0
    0.8066   -0.4630    0.5610 C   0  0  0  0  0  0  0  0  0  0  0  0
    1.7568   -1.0994    4.0853 N   0  0  0  0  0  0  0  0  0  0  0  0
    2.4382   -0.1083   -1.9486 H   0  0  0  0  0  0  0  0  0  0  0  0
    2.4632   -1.8884   -1.9910 H   0  0  0  0  0  0  0  0  0  0  0  0
    0.9202   -1.0367   -2.0251 H   0  0  0  0  0  0  0  0  0  0  0  0
    3.7653   -2.0793    0.0916 H   0  0  0  0  0  0  0  0  0  0  0  0
    3.6906   -2.1183    2.5537 H   0  0  0  0  0  0  0  0  0  0  0  0
   -0.0811   -0.0337    2.4694 H   0  0  0  0  0  0  0  0  0  0  0  0
   -0.0048    0.0020    0.0077 H   0  0  0  0  0  0  0  0  0  0  0  0
    2.4818   -1.5694    4.5886 H   0  0  0  0  0  0  0  0  0  0  0  0
    0.9559   -0.7271    4.5543 H   0  0  0  0  0  0  0  0  0  0  0  0
  1  2  1  0
  2  7  2  0
  2  3  1  0
  3  4  2  0
  4  5  1  0
  5  6  2  0
  6  7  1  0
  5  8  1  0
  1  9  1  0
  1 10  1  0
  1 11  1  0
  3 12  1  0
  4 13  1  0
  6 14  1  0
  7 15  1  0
  8 16  1  0
  8 17  1  0
M  END
>  <_TriposChargeType>  (354) 
USER_CHARGES

>  <solvdG>  (354) 
-5.57

>  <fdG>  (354) 
-5.49

>  <fname>  (354) 
mobley_5518547

>  <cname>  (354) 
 4-methylaniline

>  <dataset>  (354) 
FreeSolv

$$$$
benzenethiol
     RDKit          3D

 13 13  0  0  0  0  0  0  0  0999 V2000
    1.8851   -1.0363   -0.1124 C   0  0  0  0  0  0  0  0  0  0  0  0
    2.9210   -1.6309    0.6081 C   0  0  0  0  0  0  0  0  0  0  0  0
    2.8783   -1.6520    2.0022 C   0  0  0  0  0  0  0  0  0  0  0  0
    1.7997   -1.0786    2.6757 C   0  0  0  0  0  0  0  0  0  0  0  0
    0.7638   -0.4841    1.9551 C   0  0  0  0  0  0  0  0  0  0  0  0
    0.8066   -0.4630    0.5610 C   0  0  0  0  0  0  0  0  0  0  0  0
    1.7452   -1.1049    4.4568 S   0  0  0  0  0  0  0  0  0  0  0  0
    1.9179   -1.0195   -1.1979 H   0  0  0  0  0  0  0  0  0  0  0  0
    3.7604   -2.0771    0.0830 H   0  0  0  0  0  0  0  0  0  0  0  0
    3.6951   -2.1197    2.5465 H   0  0  0  0  0  0  0  0  0  0  0  0
   -0.0850   -0.0319    2.4622 H   0  0  0  0  0  0  0  0  0  0  0  0
    0.0000    0.0003    0.0002 H   0  0  0  0  0  0  0  0  0  0  0  0
    2.9048   -1.7504    4.6537 H   0  0  0  0  0  0  0  0  0  0  0  0
  1  6  2  0
  1  2  1  0
  2  3  2  0
  3  4  1  0
  4  5  2  0
  5  6  1  0
  4  7  1  0
  1  8  1  0
  2  9  1  0
  3 10  1  0
  5 11  1  0
  6 12  1  0
  7 13  1  0
M  END
>  <_TriposChargeType>  (355) 
USER_CHARGES

>  <solvdG>  (355) 
-2.55

>  <fdG>  (355) 
-1.5

>  <fname>  (355) 
mobley_5520946

>  <cname>  (355) 
 benzenethiol

>  <dataset>  (355) 
FreeSolv

$$$$
1,3,5-trichloro-2-phenyl-benzene
     RDKit          3D

 22 23  0  0  0  0  0  0  0  0999 V2000
    1.8851   -1.0363   -0.1124 C   0  0  0  0  0  0  0  0  0  0  0  0
    2.9210   -1.6309    0.6081 C   0  0  0  0  0  0  0  0  0  0  0  0
    2.8783   -1.6520    2.0022 C   0  0  0  0  0  0  0  0  0  0  0  0
    1.7997   -1.0786    2.6757 C   0  0  0  0  0  0  0  0  0  0  0  0
    0.7638   -0.4841    1.9551 C   0  0  0  0  0  0  0  0  0  0  0  0
    0.8066   -0.4630    0.5610 C   0  0  0  0  0  0  0  0  0  0  0  0
    1.7549   -1.1005    4.1216 C   0  0  0  0  0  0  0  0  0  0  0  0
    1.1497   -2.1685    4.7842 C   0  0  0  0  0  0  0  0  0  0  0  0
    1.1063   -2.1899    6.1783 C   0  0  0  0  0  0  0  0  0  0  0  0
    1.6679   -1.1433    6.9097 C   0  0  0  0  0  0  0  0  0  0  0  0
    2.2731   -0.0754    6.2470 C   0  0  0  0  0  0  0  0  0  0  0  0
    2.3165   -0.0540    4.8530 C   0  0  0  0  0  0  0  0  0  0  0  0
    3.0818    1.2989    4.0911 Cl  0  0  0  0  0  0  0  0  0  0  0  0
    1.6163   -1.1710    8.6298 Cl  0  0  0  0  0  0  0  0  0  0  0  0
    0.4351   -3.4973    3.9358 Cl  0  0  0  0  0  0  0  0  0  0  0  0
    1.9174   -1.0212   -1.1979 H   0  0  0  0  0  0  0  0  0  0  0  0
    3.7605   -2.0787    0.0844 H   0  0  0  0  0  0  0  0  0  0  0  0
    3.6927   -2.1196    2.5504 H   0  0  0  0  0  0  0  0  0  0  0  0
   -0.0840   -0.0332    2.4655 H   0  0  0  0  0  0  0  0  0  0  0  0
   -0.0009   -0.0015    0.0001 H   0  0  0  0  0  0  0  0  0  0  0  0
    0.6359   -3.0220    6.6977 H   0  0  0  0  0  0  0  0  0  0  0  0
    2.7112    0.7389    6.8202 H   0  0  0  0  0  0  0  0  0  0  0  0
  1  6  2  0
  1  2  1  0
  2  3  2  0
  3  4  1  0
  4  5  2  0
  5  6  1  0
  4  7  1  0
  7 12  1  0
  7  8  2  0
  8  9  1  0
  9 10  2  0
 10 11  1  0
 11 12  2  0
 12 13  1  0
 10 14  1  0
  8 15  1  0
  1 16  1  0
  2 17  1  0
  3 18  1  0
  5 19  1  0
  6 20  1  0
  9 21  1  0
 11 22  1  0
M  END
>  <_TriposChargeType>  (356) 
USER_CHARGES

>  <solvdG>  (356) 
-2.16

>  <fdG>  (356) 
-1.15

>  <fname>  (356) 
mobley_5538249

>  <cname>  (356) 
 1,3,5-trichloro-2-phenyl-benzene

>  <dataset>  (356) 
FreeSolv

$$$$
1,3,5-trichloro-2-(2,6-dichlorophenyl)benzene
     RDKit          3D

 22 23  0  0  0  0  0  0  0  0999 V2000
    1.8851   -1.0363   -0.1124 C   0  0  0  0  0  0  0  0  0  0  0  0
    2.9210   -1.6309    0.6081 C   0  0  0  0  0  0  0  0  0  0  0  0
    2.8783   -1.6520    2.0022 C   0  0  0  0  0  0  0  0  0  0  0  0
    1.7997   -1.0786    2.6757 C   0  0  0  0  0  0  0  0  0  0  0  0
    0.7638   -0.4841    1.9551 C   0  0  0  0  0  0  0  0  0  0  0  0
    0.8066   -0.4630    0.5610 C   0  0  0  0  0  0  0  0  0  0  0  0
   -0.6017    0.2450    2.7295 Cl  0  0  0  0  0  0  0  0  0  0  0  0
    1.7551   -1.1008    4.1301 C   0  0  0  0  0  0  0  0  0  0  0  0
    1.1501   -2.1688    4.7928 C   0  0  0  0  0  0  0  0  0  0  0  0
    1.1071   -2.1902    6.1868 C   0  0  0  0  0  0  0  0  0  0  0  0
    1.6689   -1.1437    6.9182 C   0  0  0  0  0  0  0  0  0  0  0  0
    2.2738   -0.0757    6.2554 C   0  0  0  0  0  0  0  0  0  0  0  0
    2.3168   -0.0543    4.8614 C   0  0  0  0  0  0  0  0  0  0  0  0
    3.0818    1.2988    4.0994 Cl  0  0  0  0  0  0  0  0  0  0  0  0
    1.6177   -1.1716    8.6383 Cl  0  0  0  0  0  0  0  0  0  0  0  0
    0.4353   -3.4976    3.9445 Cl  0  0  0  0  0  0  0  0  0  0  0  0
    4.1947   -2.4049    2.8365 Cl  0  0  0  0  0  0  0  0  0  0  0  0
    1.9183   -1.0198   -1.1979 H   0  0  0  0  0  0  0  0  0  0  0  0
    3.7537   -2.0729    0.0668 H   0  0  0  0  0  0  0  0  0  0  0  0
    0.0079   -0.0042   -0.0166 H   0  0  0  0  0  0  0  0  0  0  0  0
    0.6369   -3.0224    6.7064 H   0  0  0  0  0  0  0  0  0  0  0  0
    2.7120    0.7385    6.8285 H   0  0  0  0  0  0  0  0  0  0  0  0
  1  6  2  0
  1  2  1  0
  2  3  2  0
  3  4  1  0
  4  5  2  0
  5  6  1  0
  5  7  1  0
  4  8  1  0
  8 13  1  0
  8  9  2  0
  9 10  1  0
 10 11  2  0
 11 12  1  0
 12 13  2  0
 13 14  1  0
 11 15  1  0
  9 16  1  0
  3 17  1  0
  1 18  1  0
  2 19  1  0
  6 20  1  0
 10 21  1  0
 12 22  1  0
M  END
>  <_TriposChargeType>  (357) 
USER_CHARGES

>  <solvdG>  (357) 
-1.96

>  <fdG>  (357) 
-0.48

>  <fname>  (357) 
mobley_5561855

>  <cname>  (357) 
 1,3,5-trichloro-2-(2,6-dichlorophenyl)benzene

>  <dataset>  (357) 
FreeSolv

$$$$
2,6-dimethylaniline
     RDKit          3D

 20 20  0  0  0  0  0  0  0  0999 V2000
    1.9595   -1.0271   -1.6048 C   0  0  0  0  0  0  0  0  0  0  0  0
    1.8851   -1.0363   -0.1124 C   0  0  0  0  0  0  0  0  0  0  0  0
    2.9210   -1.6309    0.6081 C   0  0  0  0  0  0  0  0  0  0  0  0
    2.8783   -1.6520    2.0022 C   0  0  0  0  0  0  0  0  0  0  0  0
    1.7997   -1.0786    2.6757 C   0  0  0  0  0  0  0  0  0  0  0  0
    0.7638   -0.4841    1.9551 C   0  0  0  0  0  0  0  0  0  0  0  0
    0.8066   -0.4630    0.5610 C   0  0  0  0  0  0  0  0  0  0  0  0
   -0.2425    0.1420   -0.1698 N   0  0  0  0  0  0  0  0  0  0  0  0
   -0.3779    0.1227    2.7040 C   0  0  0  0  0  0  0  0  0  0  0  0
    2.4752   -0.1252   -1.9484 H   0  0  0  0  0  0  0  0  0  0  0  0
    2.4982   -1.9057   -1.9748 H   0  0  0  0  0  0  0  0  0  0  0  0
    0.9575   -1.0521   -2.0462 H   0  0  0  0  0  0  0  0  0  0  0  0
    3.7657   -2.0805    0.0927 H   0  0  0  0  0  0  0  0  0  0  0  0
    3.6854   -2.1138    2.5634 H   0  0  0  0  0  0  0  0  0  0  0  0
    1.7756   -1.1008    3.7621 H   0  0  0  0  0  0  0  0  0  0  0  0
   -0.1741    0.1905   -1.1642 H   0  0  0  0  0  0  0  0  0  0  0  0
   -0.9824    0.5906    0.3277 H   0  0  0  0  0  0  0  0  0  0  0  0
   -0.1708    1.1765    2.9223 H   0  0  0  0  0  0  0  0  0  0  0  0
   -1.3078    0.0610    2.1259 H   0  0  0  0  0  0  0  0  0  0  0  0
   -0.5542   -0.4030    3.6504 H   0  0  0  0  0  0  0  0  0  0  0  0
  1  2  1  0
  2  7  2  0
  2  3  1  0
  3  4  2  0
  4  5  1  0
  5  6  2  0
  6  7  1  0
  7  8  1  0
  6  9  1  0
  1 10  1  0
  1 11  1  0
  1 12  1  0
  3 13  1  0
  4 14  1  0
  5 15  1  0
  8 16  1  0
  8 17  1  0
  9 18  1  0
  9 19  1  0
  9 20  1  0
M  END
>  <_TriposChargeType>  (358) 
USER_CHARGES

>  <solvdG>  (358) 
-5.21

>  <fdG>  (358) 
-5.57

>  <fname>  (358) 
mobley_5571660

>  <cname>  (358) 
 2,6-dimethylaniline

>  <dataset>  (358) 
FreeSolv

$$$$
4-methoxy-N,N-dimethyl-benzamide
     RDKit          3D

 26 26  0  0  0  0  0  0  0  0999 V2000
    1.0794   -0.1520   -0.2186 C   0  0  0  0  0  0  0  0  0  0  0  0
    1.5174    0.5281   -1.4294 N   0  0  0  0  0  0  0  0  0  0  0  0
    1.0586   -0.0591   -2.6863 C   0  0  0  0  0  0  0  0  0  0  0  0
    2.3234    1.6663   -1.3232 C   0  0  0  0  0  0  0  0  0  0  0  0
    2.7133    2.1680   -0.2695 O   0  0  0  0  0  0  0  0  0  0  0  0
    2.7669    2.3258   -2.5617 C   0  0  0  0  0  0  0  0  0  0  0  0
    3.9635    1.9416   -3.1668 C   0  0  0  0  0  0  0  0  0  0  0  0
    4.3835    2.5669   -4.3408 C   0  0  0  0  0  0  0  0  0  0  0  0
    3.6070    3.5764   -4.9096 C   0  0  0  0  0  0  0  0  0  0  0  0
    2.4104    3.9606   -4.3044 C   0  0  0  0  0  0  0  0  0  0  0  0
    1.9904    3.3353   -3.1304 C   0  0  0  0  0  0  0  0  0  0  0  0
    4.0161    4.1870   -6.0552 O   0  0  0  0  0  0  0  0  0  0  0  0
    5.2490    3.7458   -6.6216 C   0  0  0  0  0  0  0  0  0  0  0  0
    1.8046   -0.9195    0.0644 H   0  0  0  0  0  0  0  0  0  0  0  0
    0.1090   -0.6283   -0.3826 H   0  0  0  0  0  0  0  0  0  0  0  0
    0.9846    0.5627    0.6032 H   0  0  0  0  0  0  0  0  0  0  0  0
    0.1100    0.3915   -2.9594 H   0  0  0  0  0  0  0  0  0  0  0  0
    0.9359   -1.1292   -2.5531 H   0  0  0  0  0  0  0  0  0  0  0  0
    1.7968    0.1347   -3.4578 H   0  0  0  0  0  0  0  0  0  0  0  0
    4.5770    1.1567   -2.7322 H   0  0  0  0  0  0  0  0  0  0  0  0
    5.3160    2.2625   -4.8080 H   0  0  0  0  0  0  0  0  0  0  0  0
    1.8015    4.7468   -4.7427 H   0  0  0  0  0  0  0  0  0  0  0  0
    1.0558    3.6418   -2.6674 H   0  0  0  0  0  0  0  0  0  0  0  0
    5.4478    4.3180   -7.5267 H   0  0  0  0  0  0  0  0  0  0  0  0
    5.1745    2.6830   -6.8484 H   0  0  0  0  0  0  0  0  0  0  0  0
    6.0421    3.9150   -5.8947 H   0  0  0  0  0  0  0  0  0  0  0  0
  1  2  1  0
  2  3  1  0
  2  4  1  0
  4  5  2  0
  4  6  1  0
  6 11  2  0
  6  7  1  0
  7  8  2  0
  8  9  1  0
  9 10  2  0
 10 11  1  0
  9 12  1  0
 12 13  1  0
  1 14  1  0
  1 15  1  0
  1 16  1  0
  3 17  1  0
  3 18  1  0
  3 19  1  0
  7 20  1  0
  8 21  1  0
 10 22  1  0
 11 23  1  0
 13 24  1  0
 13 25  1  0
 13 26  1  0
M  END
>  <_TriposChargeType>  (359) 
USER_CHARGES

>  <solvdG>  (359) 
-11.01

>  <fdG>  (359) 
-9.62

>  <fname>  (359) 
mobley_5600967

>  <cname>  (359) 
 4-methoxy-N,N-dimethyl-benzamide

>  <dataset>  (359) 
FreeSolv

$$$$
(2S,5R)-2-isopropyl-5-methyl-cyclohexanone
     RDKit          3D

 29 29  0  0  0  0  0  0  0  0999 V2000
   -1.5684    2.2506   -0.1607 C   0  0  0  0  0  0  0  0  0  0  0  0
   -1.3300    1.2032   -1.2462 C   0  0  2  0  0  0  0  0  0  0  0  0
   -1.2557    1.7236   -2.2108 H   0  0  0  0  0  0  0  0  0  0  0  0
   -2.5093    0.2238   -1.3229 C   0  0  0  0  0  0  0  0  0  0  0  0
   -2.2816   -0.8278   -2.4091 C   0  0  0  0  0  0  0  0  0  0  0  0
   -0.9885   -1.6141   -2.1782 C   0  0  2  0  0  0  0  0  0  0  0  0
   -1.0628   -2.1767   -1.2391 H   0  0  0  0  0  0  0  0  0  0  0  0
    0.1745   -0.6413   -2.0179 C   0  0  0  0  0  0  0  0  0  0  0  0
    1.2452   -0.7776   -2.6081 O   0  0  0  0  0  0  0  0  0  0  0  0
   -0.0176    0.4586   -0.9953 C   0  0  0  0  0  0  0  0  0  0  0  0
   -0.7470   -2.6022   -3.3148 C   0  0  0  0  0  0  0  0  0  0  0  0
    0.2198   -3.7010   -2.8770 C   0  0  0  0  0  0  0  0  0  0  0  0
   -2.0660   -3.2080   -3.7910 C   0  0  0  0  0  0  0  0  0  0  0  0
   -1.6492    1.7750    0.8212 H   0  0  0  0  0  0  0  0  0  0  0  0
   -0.7421    2.9671   -0.1296 H   0  0  0  0  0  0  0  0  0  0  0  0
   -2.4942    2.8007   -0.3542 H   0  0  0  0  0  0  0  0  0  0  0  0
   -2.6522   -0.2737   -0.3552 H   0  0  0  0  0  0  0  0  0  0  0  0
   -3.4345    0.7704   -1.5408 H   0  0  0  0  0  0  0  0  0  0  0  0
   -3.1361   -1.5147   -2.4298 H   0  0  0  0  0  0  0  0  0  0  0  0
   -2.2488   -0.3287   -3.3864 H   0  0  0  0  0  0  0  0  0  0  0  0
    0.0000    0.0002    0.0002 H   0  0  0  0  0  0  0  0  0  0  0  0
    0.8282    1.1524   -1.0612 H   0  0  0  0  0  0  0  0  0  0  0  0
   -0.2942   -2.0605   -4.1548 H   0  0  0  0  0  0  0  0  0  0  0  0
    0.4010   -4.4173   -3.6858 H   0  0  0  0  0  0  0  0  0  0  0  0
   -0.1815   -4.2524   -2.0202 H   0  0  0  0  0  0  0  0  0  0  0  0
    1.1840   -3.2756   -2.5793 H   0  0  0  0  0  0  0  0  0  0  0  0
   -1.9052   -3.9199   -4.6079 H   0  0  0  0  0  0  0  0  0  0  0  0
   -2.7458   -2.4282   -4.1503 H   0  0  0  0  0  0  0  0  0  0  0  0
   -2.5670   -3.7380   -2.9740 H   0  0  0  0  0  0  0  0  0  0  0  0
  1  2  1  0
  2  3  1  6
  2 10  1  0
  2  4  1  0
  4  5  1  0
  5  6  1  0
  6  7  1  1
  6  8  1  0
  8  9  2  0
  8 10  1  0
  6 11  1  0
 11 12  1  0
 11 13  1  0
  1 14  1  0
  1 15  1  0
  1 16  1  0
  4 17  1  0
  4 18  1  0
  5 19  1  0
  5 20  1  0
 10 21  1  0
 10 22  1  0
 11 23  1  0
 12 24  1  0
 12 25  1  0
 12 26  1  0
 13 27  1  0
 13 28  1  0
 13 29  1  0
M  END
>  <_TriposChargeType>  (360) 
USER_CHARGES

>  <solvdG>  (360) 
-2.53

>  <fdG>  (360) 
-3.52

>  <fname>  (360) 
mobley_5616693

>  <cname>  (360) 
 (2S,5R)-2-isopropyl-5-methylcyclohexanone

>  <dataset>  (360) 
FreeSolv

$$$$
2-methylpropanal
     RDKit          3D

 13 12  0  0  0  0  0  0  0  0999 V2000
   -0.4393   -0.8920    0.4598 C   0  0  0  0  0  0  0  0  0  0  0  0
   -1.9421   -0.7229    0.6486 C   0  0  0  0  0  0  0  0  0  0  0  0
   -2.5622   -1.9747    1.2574 C   0  0  0  0  0  0  0  0  0  0  0  0
   -2.1993    0.5040    1.5020 C   0  0  0  0  0  0  0  0  0  0  0  0
   -2.7795    0.4928    2.5828 O   0  0  0  0  0  0  0  0  0  0  0  0
    0.0038    0.0092    0.0222 H   0  0  0  0  0  0  0  0  0  0  0  0
   -0.2207   -1.7328   -0.2065 H   0  0  0  0  0  0  0  0  0  0  0  0
    0.0632   -1.0725    1.4167 H   0  0  0  0  0  0  0  0  0  0  0  0
   -2.4061   -0.5326   -0.3263 H   0  0  0  0  0  0  0  0  0  0  0  0
   -3.6418   -1.8499    1.3916 H   0  0  0  0  0  0  0  0  0  0  0  0
   -2.1238   -2.1899    2.2379 H   0  0  0  0  0  0  0  0  0  0  0  0
   -2.3965   -2.8517    0.6218 H   0  0  0  0  0  0  0  0  0  0  0  0
   -1.8591    1.4599    1.0661 H   0  0  0  0  0  0  0  0  0  0  0  0
  1  2  1  0
  2  3  1  0
  2  4  1  0
  4  5  2  0
  1  6  1  0
  1  7  1  0
  1  8  1  0
  2  9  1  0
  3 10  1  0
  3 11  1  0
  3 12  1  0
  4 13  1  0
M  END
>  <_TriposChargeType>  (361) 
USER_CHARGES

>  <solvdG>  (361) 
-2.86

>  <fdG>  (361) 
-2.97

>  <fname>  (361) 
mobley_5627459

>  <cname>  (361) 
 2-methylpropanal

>  <dataset>  (361) 
FreeSolv

$$$$
ammonia
     RDKit          3D

  4  3  0  0  0  0  0  0  0  0999 V2000
   -0.1928   -0.0275   -0.2222 N   0  0  0  0  0  0  0  0  0  0  0  0
   -0.6347    0.2631    0.6488 H   0  0  0  0  0  0  0  0  0  0  0  0
    0.5328    0.6620   -0.4131 H   0  0  0  0  0  0  0  0  0  0  0  0
    0.2947   -0.8976   -0.0135 H   0  0  0  0  0  0  0  0  0  0  0  0
  1  2  1  0
  1  3  1  0
  1  4  1  0
M  END
>  <_TriposChargeType>  (362) 
USER_CHARGES

>  <solvdG>  (362) 
-4.29

>  <fdG>  (362) 
-4.02

>  <fname>  (362) 
mobley_5631798

>  <cname>  (362) 
 ammonia

>  <dataset>  (362) 
FreeSolv

$$$$
1,3-dimethylnaphthalene
     RDKit          3D

 24 25  0  0  0  0  0  0  0  0999 V2000
   -1.8848   -1.7025    0.9273 C   0  0  0  0  0  0  0  0  0  0  0  0
   -0.4966   -2.0341    0.4940 C   0  0  0  0  0  0  0  0  0  0  0  0
    0.3500   -1.0275    0.0392 C   0  0  0  0  0  0  0  0  0  0  0  0
    1.6484   -1.3369   -0.3665 C   0  0  0  0  0  0  0  0  0  0  0  0
    2.1168   -2.6602   -0.3222 C   0  0  0  0  0  0  0  0  0  0  0  0
    3.4207   -2.9899   -0.7267 C   0  0  0  0  0  0  0  0  0  0  0  0
    3.8693   -4.3100   -0.6758 C   0  0  0  0  0  0  0  0  0  0  0  0
    3.0228   -5.3167   -0.2210 C   0  0  0  0  0  0  0  0  0  0  0  0
    1.7243   -5.0072    0.1848 C   0  0  0  0  0  0  0  0  0  0  0  0
    1.2560   -3.6839    0.1403 C   0  0  0  0  0  0  0  0  0  0  0  0
   -0.0479   -3.3542    0.5448 C   0  0  0  0  0  0  0  0  0  0  0  0
    2.5066   -0.2068   -0.8451 C   0  0  0  0  0  0  0  0  0  0  0  0
   -1.8975   -1.4682    1.9961 H   0  0  0  0  0  0  0  0  0  0  0  0
   -2.2728   -0.8424    0.3716 H   0  0  0  0  0  0  0  0  0  0  0  0
   -2.5635   -2.5415    0.7405 H   0  0  0  0  0  0  0  0  0  0  0  0
   -0.0029    0.0006    0.0006 H   0  0  0  0  0  0  0  0  0  0  0  0
    4.1116   -2.2322   -1.0880 H   0  0  0  0  0  0  0  0  0  0  0  0
    4.8801   -4.5520   -0.9910 H   0  0  0  0  0  0  0  0  0  0  0  0
    3.3727   -6.3441   -0.1816 H   0  0  0  0  0  0  0  0  0  0  0  0
    1.0799   -5.8099    0.5371 H   0  0  0  0  0  0  0  0  0  0  0  0
   -0.7208   -4.1317    0.9025 H   0  0  0  0  0  0  0  0  0  0  0  0
    3.0580    0.2281   -0.0053 H   0  0  0  0  0  0  0  0  0  0  0  0
    3.2241   -0.5508   -1.5982 H   0  0  0  0  0  0  0  0  0  0  0  0
    1.8993    0.5763   -1.3122 H   0  0  0  0  0  0  0  0  0  0  0  0
  1  2  1  0
  2 11  2  0
  2  3  1  0
  3  4  2  0
  4  5  1  0
  5 10  2  0
  5  6  1  0
  6  7  2  0
  7  8  1  0
  8  9  2  0
  9 10  1  0
 10 11  1  0
  4 12  1  0
  1 13  1  0
  1 14  1  0
  1 15  1  0
  3 16  1  0
  6 17  1  0
  7 18  1  0
  8 19  1  0
  9 20  1  0
 11 21  1  0
 12 22  1  0
 12 23  1  0
 12 24  1  0
M  END
>  <_TriposChargeType>  (363) 
USER_CHARGES

>  <solvdG>  (363) 
-2.47

>  <fdG>  (363) 
-3.0

>  <fname>  (363) 
mobley_5665561

>  <cname>  (363) 
 1,3-dimethylnaphthalene

>  <dataset>  (363) 
FreeSolv

$$$$
hexa-1,5-diene
     RDKit          3D

 16 15  0  0  0  0  0  0  0  0999 V2000
    0.1196    0.8573   -2.2205 C   0  0  0  0  0  0  0  0  0  0  0  0
   -0.6068    0.9283   -1.0995 C   0  0  0  0  0  0  0  0  0  0  0  0
   -2.0841    0.6652   -1.0382 C   0  0  0  0  0  0  0  0  0  0  0  0
   -2.8794    1.8751   -0.5367 C   0  0  0  0  0  0  0  0  0  0  0  0
   -2.7082    3.0838   -1.4114 C   0  0  0  0  0  0  0  0  0  0  0  0
   -2.2084    4.2495   -0.9865 C   0  0  0  0  0  0  0  0  0  0  0  0
    1.1857    1.0555   -2.2193 H   0  0  0  0  0  0  0  0  0  0  0  0
   -0.3491    0.5958   -3.1628 H   0  0  0  0  0  0  0  0  0  0  0  0
   -0.1057    1.1814   -0.1687 H   0  0  0  0  0  0  0  0  0  0  0  0
   -2.2480   -0.1722   -0.3488 H   0  0  0  0  0  0  0  0  0  0  0  0
   -2.4669    0.3432   -2.0150 H   0  0  0  0  0  0  0  0  0  0  0  0
   -2.6058    2.0996    0.5020 H   0  0  0  0  0  0  0  0  0  0  0  0
   -3.9451    1.6150   -0.5280 H   0  0  0  0  0  0  0  0  0  0  0  0
   -3.0224    2.9984   -2.4484 H   0  0  0  0  0  0  0  0  0  0  0  0
   -2.1021    5.0980   -1.6532 H   0  0  0  0  0  0  0  0  0  0  0  0
   -1.8973    4.3703    0.0454 H   0  0  0  0  0  0  0  0  0  0  0  0
  1  2  2  3
  2  3  1  0
  3  4  1  0
  4  5  1  0
  5  6  2  3
  1  7  1  0
  1  8  1  0
  2  9  1  0
  3 10  1  0
  3 11  1  0
  4 12  1  0
  4 13  1  0
  5 14  1  0
  6 15  1  0
  6 16  1  0
M  END
>  <_TriposChargeType>  (364) 
USER_CHARGES

>  <solvdG>  (364) 
1.01

>  <fdG>  (364) 
2.49

>  <fname>  (364) 
mobley_5690766

>  <cname>  (364) 
 hexa-1,5-diene

>  <dataset>  (364) 
FreeSolv

$$$$
N-methylmethanamine
     RDKit          3D

 10  9  0  0  0  0  0  0  0  0999 V2000
    1.0277    0.1348    0.3510 C   0  0  0  0  0  0  0  0  0  0  0  0
    1.0302    0.2824    1.8002 N   0  0  0  0  0  0  0  0  0  0  0  0
    2.3857    0.4585    2.3034 C   0  0  0  0  0  0  0  0  0  0  0  0
    0.0049    0.0037   -0.0116 H   0  0  0  0  0  0  0  0  0  0  0  0
    1.6192   -0.7372    0.0589 H   0  0  0  0  0  0  0  0  0  0  0  0
    1.4570    1.0232   -0.1201 H   0  0  0  0  0  0  0  0  0  0  0  0
    0.6209   -0.5503    2.2229 H   0  0  0  0  0  0  0  0  0  0  0  0
    2.3534    0.5655    3.3843 H   0  0  0  0  0  0  0  0  0  0  0  0
    2.8201    1.3502    1.8591 H   0  0  0  0  0  0  0  0  0  0  0  0
    2.9824   -0.4102    2.0381 H   0  0  0  0  0  0  0  0  0  0  0  0
  1  2  1  0
  2  3  1  0
  1  4  1  0
  1  5  1  0
  1  6  1  0
  2  7  1  0
  3  8  1  0
  3  9  1  0
  3 10  1  0
M  END
>  <_TriposChargeType>  (365) 
USER_CHARGES

>  <solvdG>  (365) 
-4.29

>  <fdG>  (365) 
-2.99

>  <fname>  (365) 
mobley_5692472

>  <cname>  (365) 
 N-methylmethanamine

>  <dataset>  (365) 
FreeSolv

$$$$
3,6-dichloro-2-methoxy-benzoic acid
     RDKit          3D

 19 19  0  0  0  0  0  0  0  0999 V2000
    2.5541    0.1096   -2.0815 C   0  0  0  0  0  0  0  0  0  0  0  0
    1.9230   -1.0133   -1.4772 O   0  0  0  0  0  0  0  0  0  0  0  0
    1.8851   -1.0363   -0.1124 C   0  0  0  0  0  0  0  0  0  0  0  0
    2.9210   -1.6309    0.6081 C   0  0  0  0  0  0  0  0  0  0  0  0
    2.8783   -1.6520    2.0022 C   0  0  0  0  0  0  0  0  0  0  0  0
    1.7997   -1.0786    2.6757 C   0  0  0  0  0  0  0  0  0  0  0  0
    0.7638   -0.4841    1.9551 C   0  0  0  0  0  0  0  0  0  0  0  0
    0.8066   -0.4630    0.5610 C   0  0  0  0  0  0  0  0  0  0  0  0
   -0.2675    0.1541   -0.2129 C   0  0  0  0  0  0  0  0  0  0  0  0
   -0.6079    1.3355   -0.1378 O   0  0  0  0  0  0  0  0  0  0  0  0
   -0.8715   -0.7297   -1.0499 O   0  0  0  0  0  0  0  0  0  0  0  0
   -0.5517    0.2128    2.8313 Cl  0  0  0  0  0  0  0  0  0  0  0  0
    4.2689   -2.3485   -0.1954 Cl  0  0  0  0  0  0  0  0  0  0  0  0
    2.5177    0.0074   -3.1689 H   0  0  0  0  0  0  0  0  0  0  0  0
    3.5922    0.1700   -1.7451 H   0  0  0  0  0  0  0  0  0  0  0  0
    2.0237    1.0176   -1.7852 H   0  0  0  0  0  0  0  0  0  0  0  0
    3.6777   -2.1114    2.5781 H   0  0  0  0  0  0  0  0  0  0  0  0
    1.7817   -1.1038    3.7624 H   0  0  0  0  0  0  0  0  0  0  0  0
   -1.5942   -0.3244   -1.5752 H   0  0  0  0  0  0  0  0  0  0  0  0
  1  2  1  0
  2  3  1  0
  3  8  2  0
  3  4  1  0
  4  5  2  0
  5  6  1  0
  6  7  2  0
  7  8  1  0
  8  9  1  0
  9 10  2  0
  9 11  1  0
  7 12  1  0
  4 13  1  0
  1 14  1  0
  1 15  1  0
  1 16  1  0
  5 17  1  0
  6 18  1  0
 11 19  1  0
M  END
>  <_TriposChargeType>  (366) 
USER_CHARGES

>  <solvdG>  (366) 
-9.86

>  <fdG>  (366) 
-8.66

>  <fname>  (366) 
mobley_5708811

>  <cname>  (366) 
 dicamba

>  <dataset>  (366) 
FreeSolv

$$$$
4-methyl-1H-imidazole
     RDKit          3D

 12 12  0  0  0  0  0  0  0  0999 V2000
   -0.2079    0.2981    0.1233 C   0  0  0  0  0  0  0  0  0  0  0  0
    0.6549   -0.7784   -0.3640 C   0  0  0  0  0  0  0  0  0  0  0  0
    1.9499   -0.7740   -0.8259 C   0  0  0  0  0  0  0  0  0  0  0  0
    2.3537   -2.0366   -1.1813 N   0  0  0  0  0  0  0  0  0  0  0  0
    1.3133   -2.8020   -0.9371 C   0  0  0  0  0  0  0  0  0  0  0  0
    0.2603   -2.0844   -0.4416 N   0  0  0  0  0  0  0  0  0  0  0  0
   -0.0878    0.4138    1.2048 H   0  0  0  0  0  0  0  0  0  0  0  0
    0.0385    1.2474   -0.3639 H   0  0  0  0  0  0  0  0  0  0  0  0
   -1.2597    0.0854   -0.0955 H   0  0  0  0  0  0  0  0  0  0  0  0
    2.6449    0.0471   -0.9372 H   0  0  0  0  0  0  0  0  0  0  0  0
    3.2612   -2.2957   -1.5471 H   0  0  0  0  0  0  0  0  0  0  0  0
    1.2800   -3.8703   -1.1022 H   0  0  0  0  0  0  0  0  0  0  0  0
  1  2  1  0
  2  6  1  0
  2  3  2  0
  3  4  1  0
  4  5  1  0
  5  6  2  0
  1  7  1  0
  1  8  1  0
  1  9  1  0
  3 10  1  0
  4 11  1  0
  5 12  1  0
M  END
>  <_TriposChargeType>  (367) 
USER_CHARGES

>  <solvdG>  (367) 
-10.27

>  <fdG>  (367) 
-8.21

>  <fname>  (367) 
mobley_5732611

>  <cname>  (367) 
 4-methyl-1H-imidazole

>  <dataset>  (367) 
FreeSolv

$$$$
1-methyl-2-nitro-benzene
     RDKit          3D

 17 17  0  0  0  0  0  0  0  0999 V2000
    1.9618   -1.0304   -1.6052 C   0  0  0  0  0  0  0  0  0  0  0  0
    1.8851   -1.0363   -0.1124 C   0  0  0  0  0  0  0  0  0  0  0  0
    2.9210   -1.6309    0.6081 C   0  0  0  0  0  0  0  0  0  0  0  0
    2.8783   -1.6520    2.0022 C   0  0  0  0  0  0  0  0  0  0  0  0
    1.7997   -1.0786    2.6757 C   0  0  0  0  0  0  0  0  0  0  0  0
    0.7638   -0.4841    1.9551 C   0  0  0  0  0  0  0  0  0  0  0  0
    0.8066   -0.4630    0.5610 C   0  0  0  0  0  0  0  0  0  0  0  0
   -0.2607    0.1484   -0.1531 N   0  0  0  0  0  4  0  0  0  0  0  0
   -1.2451   -0.5520   -0.4879 O   0  0  0  0  0  0  0  0  0  0  0  0
   -0.1853    1.3695   -0.4266 O   0  0  0  0  0  1  0  0  0  0  0  0
    2.4775   -0.1289   -1.9500 H   0  0  0  0  0  0  0  0  0  0  0  0
    2.5016   -1.9095   -1.9724 H   0  0  0  0  0  0  0  0  0  0  0  0
    0.9605   -1.0569   -2.0481 H   0  0  0  0  0  0  0  0  0  0  0  0
    3.7658   -2.0803    0.0928 H   0  0  0  0  0  0  0  0  0  0  0  0
    3.6860   -2.1128    2.5633 H   0  0  0  0  0  0  0  0  0  0  0  0
    1.7672   -1.0949    3.7611 H   0  0  0  0  0  0  0  0  0  0  0  0
   -0.0716   -0.0433    2.4937 H   0  0  0  0  0  0  0  0  0  0  0  0
  1  2  1  0
  2  7  2  0
  2  3  1  0
  3  4  2  0
  4  5  1  0
  5  6  2  0
  6  7  1  0
  7  8  1  0
  8  9  2  0
  8 10  1  0
  1 11  1  0
  1 12  1  0
  1 13  1  0
  3 14  1  0
  4 15  1  0
  5 16  1  0
  6 17  1  0
M  CHG  2   8   1  10  -1
M  END
>  <_TriposChargeType>  (368) 
USER_CHARGES

>  <solvdG>  (368) 
-3.58

>  <fdG>  (368) 
-3.13

>  <fname>  (368) 
mobley_5747188

>  <cname>  (368) 
 1-methyl-2-nitro-benzene

>  <dataset>  (368) 
FreeSolv

$$$$
1,1,1,2-tetramethoxyethane
     RDKit          3D

 24 23  0  0  0  0  0  0  0  0999 V2000
    1.6880   -1.6004   -2.9713 C   0  0  0  0  0  0  0  0  0  0  0  0
    0.7587   -1.4729   -1.9036 O   0  0  0  0  0  0  0  0  0  0  0  0
    0.9068   -0.2287   -1.2275 C   0  0  0  0  0  0  0  0  0  0  0  0
   -0.1172   -0.1296   -0.0787 C   0  0  0  0  0  0  0  0  0  0  0  0
   -0.2213   -1.4127    0.5776 O   0  0  0  0  0  0  0  0  0  0  0  0
    0.8090   -1.7094    1.5100 C   0  0  0  0  0  0  0  0  0  0  0  0
   -1.3788    0.1793   -0.7157 O   0  0  0  0  0  0  0  0  0  0  0  0
   -2.4629    0.3119    0.1953 C   0  0  0  0  0  0  0  0  0  0  0  0
    0.2610    0.8881    0.8684 O   0  0  0  0  0  0  0  0  0  0  0  0
    0.3693    2.2068    0.3520 C   0  0  0  0  0  0  0  0  0  0  0  0
    1.5457   -2.5644   -3.4660 H   0  0  0  0  0  0  0  0  0  0  0  0
    2.7059   -1.5261   -2.5805 H   0  0  0  0  0  0  0  0  0  0  0  0
    1.5161   -0.7958   -3.6901 H   0  0  0  0  0  0  0  0  0  0  0  0
    1.9350   -0.1470   -0.8616 H   0  0  0  0  0  0  0  0  0  0  0  0
    0.7473    0.5629   -1.9674 H   0  0  0  0  0  0  0  0  0  0  0  0
    0.6309   -2.6954    1.9417 H   0  0  0  0  0  0  0  0  0  0  0  0
    0.8165   -0.9488    2.2925 H   0  0  0  0  0  0  0  0  0  0  0  0
    1.7664   -1.7063    0.9870 H   0  0  0  0  0  0  0  0  0  0  0  0
   -3.3723    0.5434   -0.3605 H   0  0  0  0  0  0  0  0  0  0  0  0
   -2.2389    1.1084    0.9061 H   0  0  0  0  0  0  0  0  0  0  0  0
   -2.5885   -0.6312    0.7281 H   0  0  0  0  0  0  0  0  0  0  0  0
    0.6592    2.8859    1.1554 H   0  0  0  0  0  0  0  0  0  0  0  0
   -0.5905    2.5085   -0.0709 H   0  0  0  0  0  0  0  0  0  0  0  0
    1.1321    2.2166   -0.4281 H   0  0  0  0  0  0  0  0  0  0  0  0
  1  2  1  0
  2  3  1  0
  3  4  1  0
  4  5  1  0
  5  6  1  0
  4  7  1  0
  7  8  1  0
  4  9  1  0
  9 10  1  0
  1 11  1  0
  1 12  1  0
  1 13  1  0
  3 14  1  0
  3 15  1  0
  6 16  1  0
  6 17  1  0
  6 18  1  0
  8 19  1  0
  8 20  1  0
  8 21  1  0
 10 22  1  0
 10 23  1  0
 10 24  1  0
M  END
>  <_TriposChargeType>  (369) 
USER_CHARGES

>  <solvdG>  (369) 
-5.73

>  <fdG>  (369) 
-5.44

>  <fname>  (369) 
mobley_5747981

>  <cname>  (369) 
 1,1,1,2-tetramethoxyethane

>  <dataset>  (369) 
FreeSolv

$$$$
pentan-1-ol
     RDKit          3D

 18 17  0  0  0  0  0  0  0  0999 V2000
    0.7912   -0.3884    0.6505 C   0  0  0  0  0  0  0  0  0  0  0  0
    1.6185   -1.4417   -0.0691 C   0  0  0  0  0  0  0  0  0  0  0  0
    2.2938   -0.8687   -1.3148 C   0  0  0  0  0  0  0  0  0  0  0  0
    3.1237   -1.9294   -2.0346 C   0  0  0  0  0  0  0  0  0  0  0  0
    3.7999   -1.3667   -3.2767 C   0  0  0  0  0  0  0  0  0  0  0  0
    4.5528   -2.3995   -3.8975 O   0  0  0  0  0  0  0  0  0  0  0  0
    0.3114   -0.8073    1.5408 H   0  0  0  0  0  0  0  0  0  0  0  0
    1.4149    0.4558    0.9609 H   0  0  0  0  0  0  0  0  0  0  0  0
    0.0065   -0.0064   -0.0100 H   0  0  0  0  0  0  0  0  0  0  0  0
    0.9694   -2.2796   -0.3490 H   0  0  0  0  0  0  0  0  0  0  0  0
    2.3771   -1.8341    0.6182 H   0  0  0  0  0  0  0  0  0  0  0  0
    1.5317   -0.4729   -1.9971 H   0  0  0  0  0  0  0  0  0  0  0  0
    2.9390   -0.0288   -1.0292 H   0  0  0  0  0  0  0  0  0  0  0  0
    2.4900   -2.7784   -2.3197 H   0  0  0  0  0  0  0  0  0  0  0  0
    3.8860   -2.3380   -1.3597 H   0  0  0  0  0  0  0  0  0  0  0  0
    4.4795   -0.5492   -3.0155 H   0  0  0  0  0  0  0  0  0  0  0  0
    3.0579   -0.9985   -3.9924 H   0  0  0  0  0  0  0  0  0  0  0  0
    4.9696   -2.0094   -4.6830 H   0  0  0  0  0  0  0  0  0  0  0  0
  1  2  1  0
  2  3  1  0
  3  4  1  0
  4  5  1  0
  5  6  1  0
  1  7  1  0
  1  8  1  0
  1  9  1  0
  2 10  1  0
  2 11  1  0
  3 12  1  0
  3 13  1  0
  4 14  1  0
  4 15  1  0
  5 16  1  0
  5 17  1  0
  6 18  1  0
M  END
>  <_TriposChargeType>  (370) 
USER_CHARGES

>  <solvdG>  (370) 
-4.57

>  <fdG>  (370) 
-3.05

>  <fname>  (370) 
mobley_5759258

>  <cname>  (370) 
 pentan-1-ol

>  <dataset>  (370) 
FreeSolv

$$$$
dimethyl sulfate
     RDKit          3D

 13 12  0  0  0  0  0  0  0  0999 V2000
    0.9056    0.5937   -0.1920 C   0  0  0  0  0  0  0  0  0  0  0  0
    1.0186    1.5714    0.8310 O   0  0  0  0  0  0  0  0  0  0  0  0
    2.3591    2.5054    0.8880 S   0  0  0  0  0  6  0  0  0  0  0  0
    2.4485    3.2406   -0.3603 O   0  0  0  0  0  0  0  0  0  0  0  0
    3.4635    1.6803    1.3422 O   0  0  0  0  0  0  0  0  0  0  0  0
    1.9981    3.5680    2.0770 O   0  0  0  0  0  0  0  0  0  0  0  0
    2.9502    4.5630    2.4214 C   0  0  0  0  0  0  0  0  0  0  0  0
   -0.0432    0.0621   -0.0857 H   0  0  0  0  0  0  0  0  0  0  0  0
    1.7394   -0.1091   -0.1193 H   0  0  0  0  0  0  0  0  0  0  0  0
    0.9348    1.0915   -1.1642 H   0  0  0  0  0  0  0  0  0  0  0  0
    2.5507    5.1820    3.2268 H   0  0  0  0  0  0  0  0  0  0  0  0
    3.1653    5.1764    1.5445 H   0  0  0  0  0  0  0  0  0  0  0  0
    3.8654    4.0726    2.7576 H   0  0  0  0  0  0  0  0  0  0  0  0
  1  2  1  0
  2  3  1  0
  3  4  2  0
  3  5  2  0
  3  6  1  0
  6  7  1  0
  1  8  1  0
  1  9  1  0
  1 10  1  0
  7 11  1  0
  7 12  1  0
  7 13  1  0
M  END
>  <_TriposChargeType>  (371) 
USER_CHARGES

>  <solvdG>  (371) 
-5.1

>  <fdG>  (371) 
-8.41

>  <fname>  (371) 
mobley_5760563

>  <cname>  (371) 
 dimethyl sulfate

>  <dataset>  (371) 
FreeSolv

$$$$
2-methoxyethanol
     RDKit          3D

 13 12  0  0  0  0  0  0  0  0999 V2000
    0.3042    0.8204    2.4305 C   0  0  0  0  0  0  0  0  0  0  0  0
   -0.8526    0.2362    1.8472 O   0  0  0  0  0  0  0  0  0  0  0  0
   -0.8936    0.4506    0.4416 C   0  0  0  0  0  0  0  0  0  0  0  0
   -2.1461   -0.1936   -0.1209 C   0  0  0  0  0  0  0  0  0  0  0  0
   -2.1145   -1.5886    0.1552 O   0  0  0  0  0  0  0  0  0  0  0  0
    0.3025    0.6364    3.5077 H   0  0  0  0  0  0  0  0  0  0  0  0
    0.3093    1.8954    2.2337 H   0  0  0  0  0  0  0  0  0  0  0  0
    1.1937    0.3665    1.9872 H   0  0  0  0  0  0  0  0  0  0  0  0
   -0.8901    1.5299    0.2612 H   0  0  0  0  0  0  0  0  0  0  0  0
    0.0000    0.0000    0.0000 H   0  0  0  0  0  0  0  0  0  0  0  0
   -2.2043   -0.0621   -1.2059 H   0  0  0  0  0  0  0  0  0  0  0  0
   -3.0385    0.2289    0.3500 H   0  0  0  0  0  0  0  0  0  0  0  0
   -2.9276   -1.9652   -0.2177 H   0  0  0  0  0  0  0  0  0  0  0  0
  1  2  1  0
  2  3  1  0
  3  4  1  0
  4  5  1  0
  1  6  1  0
  1  7  1  0
  1  8  1  0
  3  9  1  0
  3 10  1  0
  4 11  1  0
  4 12  1  0
  5 13  1  0
M  END
>  <_TriposChargeType>  (372) 
USER_CHARGES

>  <solvdG>  (372) 
-6.62

>  <fdG>  (372) 
-4.69

>  <fname>  (372) 
mobley_5816127

>  <cname>  (372) 
 2-methoxyethanol

>  <dataset>  (372) 
FreeSolv

$$$$
methylcyclopentane
     RDKit          3D

 18 18  0  0  0  0  0  0  0  0999 V2000
    0.5910   -1.1933   -4.1767 C   0  0  0  0  0  0  0  0  0  0  0  0
    0.0448   -0.9981   -2.7731 C   0  0  0  0  0  0  0  0  0  0  0  0
    0.6372    0.2135   -2.0602 C   0  0  0  0  0  0  0  0  0  0  0  0
   -0.3396    0.4881   -0.9209 C   0  0  0  0  0  0  0  0  0  0  0  0
   -1.6799   -0.1059   -1.3575 C   0  0  0  0  0  0  0  0  0  0  0  0
   -1.4494   -0.6928   -2.7462 C   0  0  0  0  0  0  0  0  0  0  0  0
    1.6631   -1.4093   -4.1453 H   0  0  0  0  0  0  0  0  0  0  0  0
    0.0859   -2.0271   -4.6733 H   0  0  0  0  0  0  0  0  0  0  0  0
    0.4388   -0.2914   -4.7771 H   0  0  0  0  0  0  0  0  0  0  0  0
    0.2422   -1.9014   -2.1809 H   0  0  0  0  0  0  0  0  0  0  0  0
    1.6518    0.0270   -1.6943 H   0  0  0  0  0  0  0  0  0  0  0  0
    0.6757    1.0813   -2.7303 H   0  0  0  0  0  0  0  0  0  0  0  0
    0.0009    0.0008    0.0000 H   0  0  0  0  0  0  0  0  0  0  0  0
   -0.4171    1.5603   -0.7140 H   0  0  0  0  0  0  0  0  0  0  0  0
   -1.9815   -0.8931   -0.6567 H   0  0  0  0  0  0  0  0  0  0  0  0
   -2.4750    0.6463   -1.3687 H   0  0  0  0  0  0  0  0  0  0  0  0
   -2.0610   -1.5832   -2.9214 H   0  0  0  0  0  0  0  0  0  0  0  0
   -1.7112    0.0502   -3.5096 H   0  0  0  0  0  0  0  0  0  0  0  0
  1  2  1  0
  2  6  1  0
  2  3  1  0
  3  4  1  0
  4  5  1  0
  5  6  1  0
  1  7  1  0
  1  8  1  0
  1  9  1  0
  2 10  1  0
  3 11  1  0
  3 12  1  0
  4 13  1  0
  4 14  1  0
  5 15  1  0
  5 16  1  0
  6 17  1  0
  6 18  1  0
M  END
>  <_TriposChargeType>  (373) 
USER_CHARGES

>  <solvdG>  (373) 
1.59

>  <fdG>  (373) 
1.78

>  <fname>  (373) 
mobley_5852491

>  <cname>  (373) 
 methylcyclopentane

>  <dataset>  (373) 
FreeSolv

$$$$
quinoline
     RDKit          3D

 17 18  0  0  0  0  0  0  0  0999 V2000
    0.1298    2.0977   -0.4527 C   0  0  0  0  0  0  0  0  0  0  0  0
   -0.5469    0.8976   -0.2738 C   0  0  0  0  0  0  0  0  0  0  0  0
   -1.9323    0.8440   -0.4461 C   0  0  0  0  0  0  0  0  0  0  0  0
   -2.6683    1.9725   -0.7968 C   0  0  0  0  0  0  0  0  0  0  0  0
   -1.9747    3.1875   -0.9770 C   0  0  0  0  0  0  0  0  0  0  0  0
   -0.5812    3.2417   -0.8037 C   0  0  0  0  0  0  0  0  0  0  0  0
   -2.7151    4.3237   -1.3301 C   0  0  0  0  0  0  0  0  0  0  0  0
   -4.0902    4.2376   -1.4936 C   0  0  0  0  0  0  0  0  0  0  0  0
   -4.6804    3.0058   -1.2959 C   0  0  0  0  0  0  0  0  0  0  0  0
   -4.0027    1.8858   -0.9548 N   0  0  0  0  0  0  0  0  0  0  0  0
    1.2068    2.1425   -0.3219 H   0  0  0  0  0  0  0  0  0  0  0  0
    0.0001    0.0000   -0.0007 H   0  0  0  0  0  0  0  0  0  0  0  0
   -2.4389   -0.1083   -0.2998 H   0  0  0  0  0  0  0  0  0  0  0  0
   -0.0422    4.1763   -0.9411 H   0  0  0  0  0  0  0  0  0  0  0  0
   -2.2235    5.2822   -1.4809 H   0  0  0  0  0  0  0  0  0  0  0  0
   -4.6779    5.1058   -1.7678 H   0  0  0  0  0  0  0  0  0  0  0  0
   -5.7519    2.8778   -1.4106 H   0  0  0  0  0  0  0  0  0  0  0  0
  1  6  2  0
  1  2  1  0
  2  3  2  0
  3  4  1  0
  4 10  1  0
  4  5  2  0
  5  6  1  0
  5  7  1  0
  7  8  2  0
  8  9  1  0
  9 10  2  0
  1 11  1  0
  2 12  1  0
  3 13  1  0
  6 14  1  0
  7 15  1  0
  8 16  1  0
  9 17  1  0
M  END
>  <_TriposChargeType>  (374) 
USER_CHARGES

>  <solvdG>  (374) 
-5.72

>  <fdG>  (374) 
-4.99

>  <fname>  (374) 
mobley_5857

>  <cname>  (374) 
 quinoline

>  <dataset>  (374) 
FreeSolv

$$$$
2-butoxyethanol
     RDKit          3D

 22 21  0  0  0  0  0  0  0  0999 V2000
    0.3901   -1.0211   -0.0846 C   0  0  0  0  0  0  0  0  0  0  0  0
   -0.5795   -2.0237    0.5202 C   0  0  0  0  0  0  0  0  0  0  0  0
   -1.9307   -1.9925   -0.1885 C   0  0  0  0  0  0  0  0  0  0  0  0
   -2.9047   -2.9950    0.4140 C   0  0  0  0  0  0  0  0  0  0  0  0
   -4.1377   -2.9159   -0.2877 O   0  0  0  0  0  0  0  0  0  0  0  0
   -5.0930   -3.8319    0.2302 C   0  0  0  0  0  0  0  0  0  0  0  0
   -6.3833   -3.7008   -0.5566 C   0  0  0  0  0  0  0  0  0  0  0  0
   -6.8706   -2.3704   -0.4299 O   0  0  0  0  0  0  0  0  0  0  0  0
    1.3561   -1.0503    0.4296 H   0  0  0  0  0  0  0  0  0  0  0  0
    0.5590   -1.2299   -1.1458 H   0  0  0  0  0  0  0  0  0  0  0  0
   -0.0105   -0.0064    0.0025 H   0  0  0  0  0  0  0  0  0  0  0  0
   -0.1467   -3.0286    0.4523 H   0  0  0  0  0  0  0  0  0  0  0  0
   -0.7118   -1.7987    1.5849 H   0  0  0  0  0  0  0  0  0  0  0  0
   -2.3650   -0.9865   -0.1343 H   0  0  0  0  0  0  0  0  0  0  0  0
   -1.8040   -2.2066   -1.2572 H   0  0  0  0  0  0  0  0  0  0  0  0
   -2.5190   -4.0157    0.3261 H   0  0  0  0  0  0  0  0  0  0  0  0
   -3.0903   -2.7735    1.4699 H   0  0  0  0  0  0  0  0  0  0  0  0
   -4.6800   -4.8420    0.1438 H   0  0  0  0  0  0  0  0  0  0  0  0
   -5.2623   -3.5926    1.2845 H   0  0  0  0  0  0  0  0  0  0  0  0
   -7.1494   -4.3824   -0.1738 H   0  0  0  0  0  0  0  0  0  0  0  0
   -6.2078   -3.9020   -1.6174 H   0  0  0  0  0  0  0  0  0  0  0  0
   -7.6927   -2.3244   -0.9436 H   0  0  0  0  0  0  0  0  0  0  0  0
  1  2  1  0
  2  3  1  0
  3  4  1  0
  4  5  1  0
  5  6  1  0
  6  7  1  0
  7  8  1  0
  1  9  1  0
  1 10  1  0
  1 11  1  0
  2 12  1  0
  2 13  1  0
  3 14  1  0
  3 15  1  0
  4 16  1  0
  4 17  1  0
  6 18  1  0
  6 19  1  0
  7 20  1  0
  7 21  1  0
  8 22  1  0
M  END
>  <_TriposChargeType>  (375) 
USER_CHARGES

>  <solvdG>  (375) 
-6.25

>  <fdG>  (375) 
-3.85

>  <fname>  (375) 
mobley_5880265

>  <cname>  (375) 
 2-butoxyethanol

>  <dataset>  (375) 
FreeSolv

$$$$
hexylbenzene
     RDKit          3D

 30 30  0  0  0  0  0  0  0  0999 V2000
    0.5655   -0.3057   -0.8833 C   0  0  0  0  0  0  0  0  0  0  0  0
   -0.1252    0.1508   -2.1585 C   0  0  0  0  0  0  0  0  0  0  0  0
   -1.5244   -0.4515   -2.2838 C   0  0  0  0  0  0  0  0  0  0  0  0
   -2.2159    0.0100   -3.5677 C   0  0  0  0  0  0  0  0  0  0  0  0
   -3.6163   -0.5929   -3.6930 C   0  0  0  0  0  0  0  0  0  0  0  0
   -4.3060   -0.1298   -4.9781 C   0  0  0  0  0  0  0  0  0  0  0  0
   -5.6783   -0.7132   -5.1127 C   0  0  0  0  0  0  0  0  0  0  0  0
   -5.8563   -1.9333   -5.7651 C   0  0  0  0  0  0  0  0  0  0  0  0
   -7.1347   -2.4769   -5.8908 C   0  0  0  0  0  0  0  0  0  0  0  0
   -8.2351   -1.8004   -5.3643 C   0  0  0  0  0  0  0  0  0  0  0  0
   -8.0570   -0.5804   -4.7120 C   0  0  0  0  0  0  0  0  0  0  0  0
   -6.7786   -0.0367   -4.5863 C   0  0  0  0  0  0  0  0  0  0  0  0
    1.5641    0.1367   -0.8139 H   0  0  0  0  0  0  0  0  0  0  0  0
   -0.0030   -0.0014    0.0013 H   0  0  0  0  0  0  0  0  0  0  0  0
    0.6744   -1.3948   -0.8643 H   0  0  0  0  0  0  0  0  0  0  0  0
    0.4845   -0.1405   -3.0218 H   0  0  0  0  0  0  0  0  0  0  0  0
   -0.1892    1.2452   -2.1608 H   0  0  0  0  0  0  0  0  0  0  0  0
   -1.4550   -1.5462   -2.2767 H   0  0  0  0  0  0  0  0  0  0  0  0
   -2.1287   -0.1604   -1.4160 H   0  0  0  0  0  0  0  0  0  0  0  0
   -1.6117   -0.2812   -4.4356 H   0  0  0  0  0  0  0  0  0  0  0  0
   -2.2855    1.1045   -3.5741 H   0  0  0  0  0  0  0  0  0  0  0  0
   -4.2186   -0.3058   -2.8216 H   0  0  0  0  0  0  0  0  0  0  0  0
   -3.5464   -1.6881   -3.6808 H   0  0  0  0  0  0  0  0  0  0  0  0
   -4.3769    0.9652   -4.9950 H   0  0  0  0  0  0  0  0  0  0  0  0
   -3.7066   -0.4146   -5.8520 H   0  0  0  0  0  0  0  0  0  0  0  0
   -5.0046   -2.4668   -6.1786 H   0  0  0  0  0  0  0  0  0  0  0  0
   -7.2732   -3.4270   -6.3985 H   0  0  0  0  0  0  0  0  0  0  0  0
   -9.2306   -2.2236   -5.4620 H   0  0  0  0  0  0  0  0  0  0  0  0
   -8.9138   -0.0534   -4.3026 H   0  0  0  0  0  0  0  0  0  0  0  0
   -6.6499    0.9142   -4.0761 H   0  0  0  0  0  0  0  0  0  0  0  0
  1  2  1  0
  2  3  1  0
  3  4  1  0
  4  5  1  0
  5  6  1  0
  6  7  1  0
  7 12  2  0
  7  8  1  0
  8  9  2  0
  9 10  1  0
 10 11  2  0
 11 12  1  0
  1 13  1  0
  1 14  1  0
  1 15  1  0
  2 16  1  0
  2 17  1  0
  3 18  1  0
  3 19  1  0
  4 20  1  0
  4 21  1  0
  5 22  1  0
  5 23  1  0
  6 24  1  0
  6 25  1  0
  8 26  1  0
  9 27  1  0
 10 28  1  0
 11 29  1  0
 12 30  1  0
M  END
>  <_TriposChargeType>  (376) 
USER_CHARGES

>  <solvdG>  (376) 
-0.04

>  <fdG>  (376) 
-0.1

>  <fname>  (376) 
mobley_588781

>  <cname>  (376) 
 hexylbenzene

>  <dataset>  (376) 
FreeSolv

$$$$
propyl propanoate
     RDKit          3D

 20 19  0  0  0  0  0  0  0  0999 V2000
   -4.5363    3.9850    4.4143 C   0  0  0  0  0  0  0  0  0  0  0  0
   -3.4077    3.2177    3.7493 C   0  0  0  0  0  0  0  0  0  0  0  0
   -3.0835    1.9309    4.4926 C   0  0  0  0  0  0  0  0  0  0  0  0
   -2.0159    1.2612    3.8143 O   0  0  0  0  0  0  0  0  0  0  0  0
   -1.6136    0.0807    4.3720 C   0  0  0  0  0  0  0  0  0  0  0  0
   -2.0821   -0.4341    5.3780 O   0  0  0  0  0  0  0  0  0  0  0  0
   -0.4896   -0.4939    3.5422 C   0  0  0  0  0  0  0  0  0  0  0  0
    0.0156   -1.8133    4.0995 C   0  0  0  0  0  0  0  0  0  0  0  0
   -4.7579    4.9077    3.8685 H   0  0  0  0  0  0  0  0  0  0  0  0
   -5.4465    3.3775    4.4375 H   0  0  0  0  0  0  0  0  0  0  0  0
   -4.2776    4.2487    5.4446 H   0  0  0  0  0  0  0  0  0  0  0  0
   -2.5113    3.8470    3.6949 H   0  0  0  0  0  0  0  0  0  0  0  0
   -3.6759    2.9857    2.7117 H   0  0  0  0  0  0  0  0  0  0  0  0
   -2.7664    2.1416    5.5190 H   0  0  0  0  0  0  0  0  0  0  0  0
   -3.9520    1.2650    4.5180 H   0  0  0  0  0  0  0  0  0  0  0  0
   -0.8558   -0.6480    2.5217 H   0  0  0  0  0  0  0  0  0  0  0  0
    0.3324    0.2296    3.5234 H   0  0  0  0  0  0  0  0  0  0  0  0
    0.8291   -2.2140    3.4856 H   0  0  0  0  0  0  0  0  0  0  0  0
    0.3904   -1.6782    5.1187 H   0  0  0  0  0  0  0  0  0  0  0  0
   -0.7838   -2.5612    4.1249 H   0  0  0  0  0  0  0  0  0  0  0  0
  1  2  1  0
  2  3  1  0
  3  4  1  0
  4  5  1  0
  5  6  2  0
  5  7  1  0
  7  8  1  0
  1  9  1  0
  1 10  1  0
  1 11  1  0
  2 12  1  0
  2 13  1  0
  3 14  1  0
  3 15  1  0
  7 16  1  0
  7 17  1  0
  8 18  1  0
  8 19  1  0
  8 20  1  0
M  END
>  <_TriposChargeType>  (377) 
USER_CHARGES

>  <solvdG>  (377) 
-2.44

>  <fdG>  (377) 
-2.45

>  <fname>  (377) 
mobley_5890803

>  <cname>  (377) 
 propyl propanoate

>  <dataset>  (377) 
FreeSolv

$$$$
(ethyldisulfanyl)ethane
     RDKit          3D

 16 15  0  0  0  0  0  0  0  0999 V2000
   -0.2793    0.2909   -0.1360 C   0  0  0  0  0  0  0  0  0  0  0  0
    0.8115   -0.6598    0.3193 C   0  0  0  0  0  0  0  0  0  0  0  0
    0.2411   -1.6598    1.7146 S   0  0  0  0  0  0  0  0  0  0  0  0
    1.8940   -2.8212    2.1001 S   0  0  0  0  0  0  0  0  0  0  0  0
    2.7903   -1.8006    3.2950 C   0  0  0  0  0  0  0  0  0  0  0  0
    4.0762   -2.4831    3.7269 C   0  0  0  0  0  0  0  0  0  0  0  0
    0.0495    0.9049   -0.9813 H   0  0  0  0  0  0  0  0  0  0  0  0
   -1.1866   -0.2482   -0.4291 H   0  0  0  0  0  0  0  0  0  0  0  0
   -0.5470    0.9695    0.6808 H   0  0  0  0  0  0  0  0  0  0  0  0
    1.6992   -0.0988    0.6272 H   0  0  0  0  0  0  0  0  0  0  0  0
    1.0980   -1.3275   -0.4988 H   0  0  0  0  0  0  0  0  0  0  0  0
    3.0145   -0.8302    2.8383 H   0  0  0  0  0  0  0  0  0  0  0  0
    2.1484   -1.6230    4.1649 H   0  0  0  0  0  0  0  0  0  0  0  0
    4.6289   -1.8750    4.4510 H   0  0  0  0  0  0  0  0  0  0  0  0
    3.8794   -3.4636    4.1735 H   0  0  0  0  0  0  0  0  0  0  0  0
    4.7278   -2.6389    2.8606 H   0  0  0  0  0  0  0  0  0  0  0  0
  1  2  1  0
  2  3  1  0
  3  4  1  0
  4  5  1  0
  5  6  1  0
  1  7  1  0
  1  8  1  0
  1  9  1  0
  2 10  1  0
  2 11  1  0
  5 12  1  0
  5 13  1  0
  6 14  1  0
  6 15  1  0
  6 16  1  0
M  END
>  <_TriposChargeType>  (378) 
USER_CHARGES

>  <solvdG>  (378) 
-1.64

>  <fdG>  (378) 
-0.98

>  <fname>  (378) 
mobley_590519

>  <cname>  (378) 
 ethyldisulfanylethane

>  <dataset>  (378) 
FreeSolv

$$$$
2-methoxy-4-methyl-phenol
     RDKit          3D

 20 20  0  0  0  0  0  0  0  0999 V2000
    1.9313   -1.0156   -1.6029 C   0  0  0  0  0  0  0  0  0  0  0  0
    1.8851   -1.0363   -0.1124 C   0  0  0  0  0  0  0  0  0  0  0  0
    2.9210   -1.6309    0.6081 C   0  0  0  0  0  0  0  0  0  0  0  0
    2.8783   -1.6520    2.0022 C   0  0  0  0  0  0  0  0  0  0  0  0
    1.7997   -1.0786    2.6757 C   0  0  0  0  0  0  0  0  0  0  0  0
    0.7638   -0.4841    1.9551 C   0  0  0  0  0  0  0  0  0  0  0  0
    0.8066   -0.4630    0.5610 C   0  0  0  0  0  0  0  0  0  0  0  0
   -0.2945    0.0799    2.6014 O   0  0  0  0  0  0  0  0  0  0  0  0
   -1.3110    0.6665    1.7910 C   0  0  0  0  0  0  0  0  0  0  0  0
    1.7689   -1.1059    4.0372 O   0  0  0  0  0  0  0  0  0  0  0  0
    2.4388   -0.1102   -1.9492 H   0  0  0  0  0  0  0  0  0  0  0  0
    2.4646   -1.8904   -1.9896 H   0  0  0  0  0  0  0  0  0  0  0  0
    0.9213   -1.0392   -2.0256 H   0  0  0  0  0  0  0  0  0  0  0  0
    3.7652   -2.0807    0.0919 H   0  0  0  0  0  0  0  0  0  0  0  0
    3.6886   -2.1162    2.5579 H   0  0  0  0  0  0  0  0  0  0  0  0
   -0.0022    0.0002    0.0015 H   0  0  0  0  0  0  0  0  0  0  0  0
   -2.0875    1.0750    2.4366 H   0  0  0  0  0  0  0  0  0  0  0  0
   -1.7233   -0.0963    1.1314 H   0  0  0  0  0  0  0  0  0  0  0  0
   -0.8635    1.4645    1.2001 H   0  0  0  0  0  0  0  0  0  0  0  0
    0.9645   -0.6726    4.3631 H   0  0  0  0  0  0  0  0  0  0  0  0
  1  2  1  0
  2  7  2  0
  2  3  1  0
  3  4  2  0
  4  5  1  0
  5  6  2  0
  6  7  1  0
  6  8  1  0
  8  9  1  0
  5 10  1  0
  1 11  1  0
  1 12  1  0
  1 13  1  0
  3 14  1  0
  4 15  1  0
  7 16  1  0
  9 17  1  0
  9 18  1  0
  9 19  1  0
 10 20  1  0
M  END
>  <_TriposChargeType>  (379) 
USER_CHARGES

>  <solvdG>  (379) 
-5.8

>  <fdG>  (379) 
-4.55

>  <fname>  (379) 
mobley_5917842

>  <cname>  (379) 
 4-methyl-2-methoxyphenol

>  <dataset>  (379) 
FreeSolv

$$$$
2,2-dimethylbutane
     RDKit          3D

 20 19  0  0  0  0  0  0  0  0999 V2000
   -0.7779    2.0416   -1.2635 C   0  0  0  0  0  0  0  0  0  0  0  0
    0.6586    1.9008   -0.7747 C   0  0  0  0  0  0  0  0  0  0  0  0
    1.7374    2.6049   -1.6377 C   0  0  0  0  0  0  0  0  0  0  0  0
    1.4191    4.1125   -1.6700 C   0  0  0  0  0  0  0  0  0  0  0  0
    1.7283    2.0728   -3.0804 C   0  0  0  0  0  0  0  0  0  0  0  0
    3.1401    2.4150   -1.0370 C   0  0  0  0  0  0  0  0  0  0  0  0
   -1.4812    1.5211   -0.6075 H   0  0  0  0  0  0  0  0  0  0  0  0
   -1.0620    3.0992   -1.2753 H   0  0  0  0  0  0  0  0  0  0  0  0
   -0.8983    1.6591   -2.2808 H   0  0  0  0  0  0  0  0  0  0  0  0
    0.8909    0.8298   -0.7080 H   0  0  0  0  0  0  0  0  0  0  0  0
    0.7073    2.2881    0.2516 H   0  0  0  0  0  0  0  0  0  0  0  0
    2.1552    4.6595   -2.2699 H   0  0  0  0  0  0  0  0  0  0  0  0
    1.4255    4.5402   -0.6609 H   0  0  0  0  0  0  0  0  0  0  0  0
    0.4307    4.3013   -2.1042 H   0  0  0  0  0  0  0  0  0  0  0  0
    2.4867    2.5635   -3.6989 H   0  0  0  0  0  0  0  0  0  0  0  0
    1.9191    0.9942   -3.1048 H   0  0  0  0  0  0  0  0  0  0  0  0
    0.7580    2.2491   -3.5589 H   0  0  0  0  0  0  0  0  0  0  0  0
    3.9018    2.9128   -1.6474 H   0  0  0  0  0  0  0  0  0  0  0  0
    3.4032    1.3524   -0.9794 H   0  0  0  0  0  0  0  0  0  0  0  0
    3.2049    2.8187   -0.0213 H   0  0  0  0  0  0  0  0  0  0  0  0
  1  2  1  0
  2  3  1  0
  3  4  1  0
  3  5  1  0
  3  6  1  0
  1  7  1  0
  1  8  1  0
  1  9  1  0
  2 10  1  0
  2 11  1  0
  4 12  1  0
  4 13  1  0
  4 14  1  0
  5 15  1  0
  5 16  1  0
  5 17  1  0
  6 18  1  0
  6 19  1  0
  6 20  1  0
M  END
>  <_TriposChargeType>  (380) 
USER_CHARGES

>  <solvdG>  (380) 
2.51

>  <fdG>  (380) 
2.5

>  <fname>  (380) 
mobley_5935995

>  <cname>  (380) 
 2,2-dimethylbutane

>  <dataset>  (380) 
FreeSolv

$$$$
2-nitroaniline
     RDKit          3D

 16 16  0  0  0  0  0  0  0  0999 V2000
    1.8851   -1.0363   -0.1124 C   0  0  0  0  0  0  0  0  0  0  0  0
    2.9210   -1.6309    0.6081 C   0  0  0  0  0  0  0  0  0  0  0  0
    2.8783   -1.6520    2.0022 C   0  0  0  0  0  0  0  0  0  0  0  0
    1.7997   -1.0786    2.6757 C   0  0  0  0  0  0  0  0  0  0  0  0
    0.7638   -0.4841    1.9551 C   0  0  0  0  0  0  0  0  0  0  0  0
    0.8066   -0.4630    0.5610 C   0  0  0  0  0  0  0  0  0  0  0  0
   -0.3405    0.1029    2.6135 N   0  0  0  0  0  0  0  0  0  0  0  0
    1.7811   -1.1145    4.0982 N   0  0  0  0  0  4  0  0  0  0  0  0
    1.2435   -2.0905    4.6717 O   0  0  0  0  0  0  0  0  0  0  0  0
    2.3029   -0.1688    4.7339 O   0  0  0  0  0  1  0  0  0  0  0  0
    1.9181   -1.0200   -1.1980 H   0  0  0  0  0  0  0  0  0  0  0  0
    3.7615   -2.0758    0.0836 H   0  0  0  0  0  0  0  0  0  0  0  0
    3.6930   -2.1193    2.5502 H   0  0  0  0  0  0  0  0  0  0  0  0
    0.0042   -0.0044   -0.0115 H   0  0  0  0  0  0  0  0  0  0  0  0
   -1.0414    0.5615    2.0700 H   0  0  0  0  0  0  0  0  0  0  0  0
   -0.3510    0.1305    3.6116 H   0  0  0  0  0  0  0  0  0  0  0  0
  1  6  2  0
  1  2  1  0
  2  3  2  0
  3  4  1  0
  4  5  2  0
  5  6  1  0
  5  7  1  0
  4  8  1  0
  8  9  2  0
  8 10  1  0
  1 11  1  0
  2 12  1  0
  3 13  1  0
  6 14  1  0
  7 15  1  0
  7 16  1  0
M  CHG  2   8   1  10  -1
M  END
>  <_TriposChargeType>  (381) 
USER_CHARGES

>  <solvdG>  (381) 
-7.37

>  <fdG>  (381) 
-7.66

>  <fname>  (381) 
mobley_5948990

>  <cname>  (381) 
 2-nitroaniline

>  <dataset>  (381) 
FreeSolv

$$$$
1,1,2,2-tetrachloroethylene
     RDKit          3D

  6  5  0  0  0  0  0  0  0  0999 V2000
    0.2020    0.6401   -0.0293 C   0  0  0  0  0  0  0  0  0  0  0  0
   -0.2019   -0.6401    0.0292 C   0  0  0  0  0  0  0  0  0  0  0  0
    0.9124   -1.9725    0.0232 Cl  0  0  0  0  0  0  0  0  0  0  0  0
   -1.8781   -1.0879    0.1163 Cl  0  0  0  0  0  0  0  0  0  0  0  0
   -0.9124    1.9725   -0.0233 Cl  0  0  0  0  0  0  0  0  0  0  0  0
    1.8780    1.0880   -0.1160 Cl  0  0  0  0  0  0  0  0  0  0  0  0
  1  2  2  3
  2  3  1  0
  2  4  1  0
  1  5  1  0
  1  6  1  0
M  END
>  <_TriposChargeType>  (382) 
USER_CHARGES

>  <solvdG>  (382) 
0.1

>  <fdG>  (382) 
1.33

>  <fname>  (382) 
mobley_5952846

>  <cname>  (382) 
 1,1,2,2-tetrachloroethylene

>  <dataset>  (382) 
FreeSolv

$$$$
3-methylbutan-1-ol
     RDKit          3D

 18 17  0  0  0  0  0  0  0  0999 V2000
    0.1986   -1.0772    0.0118 C   0  0  0  0  0  0  0  0  0  0  0  0
   -0.6860   -1.8165   -0.9949 C   0  0  0  0  0  0  0  0  0  0  0  0
   -2.1575   -1.6366   -0.6192 C   0  0  0  0  0  0  0  0  0  0  0  0
   -0.3808   -1.3238   -2.4187 C   0  0  0  0  0  0  0  0  0  0  0  0
    1.0651   -1.5436   -2.8473 C   0  0  0  0  0  0  0  0  0  0  0  0
    1.2276   -1.0522   -4.1720 O   0  0  0  0  0  0  0  0  0  0  0  0
    1.2578   -1.1944   -0.2408 H   0  0  0  0  0  0  0  0  0  0  0  0
    0.0483   -1.4576    1.0280 H   0  0  0  0  0  0  0  0  0  0  0  0
   -0.0261   -0.0053    0.0140 H   0  0  0  0  0  0  0  0  0  0  0  0
   -0.4442   -2.8850   -0.9331 H   0  0  0  0  0  0  0  0  0  0  0  0
   -2.8139   -2.1568   -1.3249 H   0  0  0  0  0  0  0  0  0  0  0  0
   -2.4319   -0.5761   -0.6219 H   0  0  0  0  0  0  0  0  0  0  0  0
   -2.3623   -2.0208    0.3846 H   0  0  0  0  0  0  0  0  0  0  0  0
   -0.6054   -0.2513   -2.4915 H   0  0  0  0  0  0  0  0  0  0  0  0
   -1.0486   -1.8096   -3.1423 H   0  0  0  0  0  0  0  0  0  0  0  0
    1.7537   -1.0033   -2.1901 H   0  0  0  0  0  0  0  0  0  0  0  0
    1.3258   -2.6057   -2.8462 H   0  0  0  0  0  0  0  0  0  0  0  0
    2.1546   -1.2059   -4.4150 H   0  0  0  0  0  0  0  0  0  0  0  0
  1  2  1  0
  2  3  1  0
  2  4  1  0
  4  5  1  0
  5  6  1  0
  1  7  1  0
  1  8  1  0
  1  9  1  0
  2 10  1  0
  3 11  1  0
  3 12  1  0
  3 13  1  0
  4 14  1  0
  4 15  1  0
  5 16  1  0
  5 17  1  0
  6 18  1  0
M  END
>  <_TriposChargeType>  (383) 
USER_CHARGES

>  <solvdG>  (383) 
-4.42

>  <fdG>  (383) 
-3.24

>  <fname>  (383) 
mobley_5973402

>  <cname>  (383) 
 3-methylbutan-1-ol

>  <dataset>  (383) 
FreeSolv

$$$$
3-methylpyridine
     RDKit          3D

 14 14  0  0  0  0  0  0  0  0999 V2000
    2.8852   -0.2665    3.6509 C   0  0  0  0  0  0  0  0  0  0  0  0
    1.6520   -0.6227    2.8997 C   0  0  0  0  0  0  0  0  0  0  0  0
    1.3879   -0.0684    1.6522 C   0  0  0  0  0  0  0  0  0  0  0  0
    0.2265   -0.4197    0.9733 C   0  0  0  0  0  0  0  0  0  0  0  0
   -0.6317   -1.3224    1.5803 C   0  0  0  0  0  0  0  0  0  0  0  0
   -0.4092   -1.8816    2.7908 N   0  0  0  0  0  0  0  0  0  0  0  0
    0.7299   -1.5161    3.4206 C   0  0  0  0  0  0  0  0  0  0  0  0
    3.6948   -0.9547    3.3895 H   0  0  0  0  0  0  0  0  0  0  0  0
    3.2016    0.7562    3.4206 H   0  0  0  0  0  0  0  0  0  0  0  0
    2.7130   -0.3164    4.7313 H   0  0  0  0  0  0  0  0  0  0  0  0
    2.0808    0.6373    1.2020 H   0  0  0  0  0  0  0  0  0  0  0  0
   -0.0000   -0.0001   -0.0002 H   0  0  0  0  0  0  0  0  0  0  0  0
   -1.5507   -1.6289    1.0916 H   0  0  0  0  0  0  0  0  0  0  0  0
    0.8820   -1.9806    4.3900 H   0  0  0  0  0  0  0  0  0  0  0  0
  1  2  1  0
  2  7  2  0
  2  3  1  0
  3  4  2  0
  4  5  1  0
  5  6  2  0
  6  7  1  0
  1  8  1  0
  1  9  1  0
  1 10  1  0
  3 11  1  0
  4 12  1  0
  5 13  1  0
  7 14  1  0
M  END
>  <_TriposChargeType>  (384) 
USER_CHARGES

>  <solvdG>  (384) 
-4.77

>  <fdG>  (384) 
-3.22

>  <fname>  (384) 
mobley_5977084

>  <cname>  (384) 
 3-methylpyridine

>  <dataset>  (384) 
FreeSolv

$$$$
1-nitrobutane
     RDKit          3D

 16 15  0  0  0  0  0  0  0  0999 V2000
   -0.4741    0.9660   -0.2045 C   0  0  0  0  0  0  0  0  0  0  0  0
   -1.0731    1.5381    1.0709 C   0  0  0  0  0  0  0  0  0  0  0  0
   -1.7896    2.8637    0.8059 C   0  0  0  0  0  0  0  0  0  0  0  0
   -2.3977    3.4556    2.0694 C   0  0  0  0  0  0  0  0  0  0  0  0
   -3.0648    4.7171    1.7463 N   0  0  0  0  0  4  0  0  0  0  0  0
   -4.2690    4.6746    1.4218 O   0  0  0  0  0  0  0  0  0  0  0  0
   -2.3924    5.7673    1.7942 O   0  0  0  0  0  1  0  0  0  0  0  0
    0.0365    0.0181   -0.0066 H   0  0  0  0  0  0  0  0  0  0  0  0
   -1.2605    0.7805   -0.9428 H   0  0  0  0  0  0  0  0  0  0  0  0
    0.2484    1.6605   -0.6450 H   0  0  0  0  0  0  0  0  0  0  0  0
   -1.7777    0.8126    1.4936 H   0  0  0  0  0  0  0  0  0  0  0  0
   -0.2735    1.6805    1.8065 H   0  0  0  0  0  0  0  0  0  0  0  0
   -1.0855    3.5797    0.3650 H   0  0  0  0  0  0  0  0  0  0  0  0
   -2.5894    2.7018    0.0734 H   0  0  0  0  0  0  0  0  0  0  0  0
   -1.6377    3.6468    2.8331 H   0  0  0  0  0  0  0  0  0  0  0  0
   -3.1467    2.7767    2.4881 H   0  0  0  0  0  0  0  0  0  0  0  0
  1  2  1  0
  2  3  1  0
  3  4  1  0
  4  5  1  0
  5  6  2  0
  5  7  1  0
  1  8  1  0
  1  9  1  0
  1 10  1  0
  2 11  1  0
  2 12  1  0
  3 13  1  0
  3 14  1  0
  4 15  1  0
  4 16  1  0
M  CHG  2   5   1   7  -1
M  END
>  <_TriposChargeType>  (385) 
USER_CHARGES

>  <solvdG>  (385) 
-3.09

>  <fdG>  (385) 
-1.45

>  <fname>  (385) 
mobley_6006813

>  <cname>  (385) 
 1-nitrobutane

>  <dataset>  (385) 
FreeSolv

$$$$
5-(2,4-difluorophenyl)-2-hydroxy-benzoic acid
     RDKit          3D

 26 27  0  0  0  0  0  0  0  0999 V2000
    1.8851   -1.0363   -0.1124 C   0  0  0  0  0  0  0  0  0  0  0  0
    2.9210   -1.6309    0.6081 C   0  0  0  0  0  0  0  0  0  0  0  0
    2.8783   -1.6520    2.0022 C   0  0  0  0  0  0  0  0  0  0  0  0
    1.7997   -1.0786    2.6757 C   0  0  0  0  0  0  0  0  0  0  0  0
    0.7638   -0.4841    1.9551 C   0  0  0  0  0  0  0  0  0  0  0  0
    0.8066   -0.4630    0.5610 C   0  0  0  0  0  0  0  0  0  0  0  0
   -0.2675    0.1536   -0.1870 C   0  0  0  0  0  0  0  0  0  0  0  0
   -1.0064   -0.6068   -1.0934 C   0  0  0  0  0  0  0  0  0  0  0  0
   -2.0423   -0.0166   -1.8174 C   0  0  0  0  0  0  0  0  0  0  0  0
   -2.3393    1.3341   -1.6351 C   0  0  0  0  0  0  0  0  0  0  0  0
   -1.6003    2.0945   -0.7287 C   0  0  0  0  0  0  0  0  0  0  0  0
   -0.5644    1.5042   -0.0047 C   0  0  0  0  0  0  0  0  0  0  0  0
    0.1381    2.2494    0.8614 F   0  0  0  0  0  0  0  0  0  0  0  0
   -3.3326    1.9013   -2.3319 F   0  0  0  0  0  0  0  0  0  0  0  0
    1.7367   -1.0893    4.1306 C   0  0  0  0  0  0  0  0  0  0  0  0
    2.2257   -1.9565    4.8601 O   0  0  0  0  0  0  0  0  0  0  0  0
    1.0658   -0.0155    4.6284 O   0  0  0  0  0  0  0  0  0  0  0  0
    3.9007   -2.2363    2.6880 O   0  0  0  0  0  0  0  0  0  0  0  0
    1.9330   -1.0275   -1.1987 H   0  0  0  0  0  0  0  0  0  0  0  0
    3.7589   -2.0752    0.0778 H   0  0  0  0  0  0  0  0  0  0  0  0
   -0.0760   -0.0363    2.4833 H   0  0  0  0  0  0  0  0  0  0  0  0
   -0.7875   -1.6610   -1.2464 H   0  0  0  0  0  0  0  0  0  0  0  0
   -2.6195   -0.6084   -2.5218 H   0  0  0  0  0  0  0  0  0  0  0  0
   -1.8312    3.1462   -0.5881 H   0  0  0  0  0  0  0  0  0  0  0  0
    1.0186   -0.0130    5.6083 H   0  0  0  0  0  0  0  0  0  0  0  0
    4.5640   -2.5813    2.0702 H   0  0  0  0  0  0  0  0  0  0  0  0
  1  6  2  0
  1  2  1  0
  2  3  2  0
  3  4  1  0
  4  5  2  0
  5  6  1  0
  6  7  1  0
  7 12  1  0
  7  8  2  0
  8  9  1  0
  9 10  2  0
 10 11  1  0
 11 12  2  0
 12 13  1  0
 10 14  1  0
  4 15  1  0
 15 16  2  0
 15 17  1  0
  3 18  1  0
  1 19  1  0
  2 20  1  0
  5 21  1  0
  8 22  1  0
  9 23  1  0
 11 24  1  0
 17 25  1  0
 18 26  1  0
M  END
>  <_TriposChargeType>  (386) 
USER_CHARGES

>  <solvdG>  (386) 
-9.4

>  <fdG>  (386) 
-6.61

>  <fname>  (386) 
mobley_6055410

>  <cname>  (386) 
 diflunisal

>  <dataset>  (386) 
FreeSolv

$$$$
hexan-1-amine
     RDKit          3D

 22 21  0  0  0  0  0  0  0  0999 V2000
   -2.3102   -1.4084    1.8834 C   0  0  0  0  0  0  0  0  0  0  0  0
   -1.1043   -0.4942    1.7312 C   0  0  0  0  0  0  0  0  0  0  0  0
   -1.2660    0.8539    2.4368 C   0  0  0  0  0  0  0  0  0  0  0  0
   -0.0497    1.7702    2.2805 C   0  0  0  0  0  0  0  0  0  0  0  0
   -0.2653    3.1033    3.0050 C   0  0  0  0  0  0  0  0  0  0  0  0
    0.9296    4.0421    2.8694 C   0  0  0  0  0  0  0  0  0  0  0  0
    0.7290    5.2929    3.5484 N   0  0  0  0  0  0  0  0  0  0  0  0
   -2.1511   -2.3588    1.3644 H   0  0  0  0  0  0  0  0  0  0  0  0
   -2.5243   -1.6194    2.9353 H   0  0  0  0  0  0  0  0  0  0  0  0
   -3.1982   -0.9326    1.4545 H   0  0  0  0  0  0  0  0  0  0  0  0
   -0.8985   -0.3360    0.6662 H   0  0  0  0  0  0  0  0  0  0  0  0
   -0.2278   -1.0022    2.1509 H   0  0  0  0  0  0  0  0  0  0  0  0
   -2.1624    1.3612    2.0598 H   0  0  0  0  0  0  0  0  0  0  0  0
   -1.4363    0.6629    3.5036 H   0  0  0  0  0  0  0  0  0  0  0  0
    0.1388    1.9591    1.2182 H   0  0  0  0  0  0  0  0  0  0  0  0
    0.8393    1.2726    2.6863 H   0  0  0  0  0  0  0  0  0  0  0  0
   -1.1673    3.5912    2.6155 H   0  0  0  0  0  0  0  0  0  0  0  0
   -0.4371    2.9100    4.0708 H   0  0  0  0  0  0  0  0  0  0  0  0
    1.1402    4.2621    1.8181 H   0  0  0  0  0  0  0  0  0  0  0  0
    1.8203    3.5812    3.3077 H   0  0  0  0  0  0  0  0  0  0  0  0
    0.9155    5.3515    4.5372 H   0  0  0  0  0  0  0  0  0  0  0  0
    0.2189    6.0283    3.0845 H   0  0  0  0  0  0  0  0  0  0  0  0
  1  2  1  0
  2  3  1  0
  3  4  1  0
  4  5  1  0
  5  6  1  0
  6  7  1  0
  1  8  1  0
  1  9  1  0
  1 10  1  0
  2 11  1  0
  2 12  1  0
  3 13  1  0
  3 14  1  0
  4 15  1  0
  4 16  1  0
  5 17  1  0
  5 18  1  0
  6 19  1  0
  6 20  1  0
  7 21  1  0
  7 22  1  0
M  END
>  <_TriposChargeType>  (387) 
USER_CHARGES

>  <solvdG>  (387) 
-3.95

>  <fdG>  (387) 
-2.77

>  <fname>  (387) 
mobley_6060301

>  <cname>  (387) 
 hexan-1-amine

>  <dataset>  (387) 
FreeSolv

$$$$
(E)-oct-2-enal
     RDKit          3D

 23 22  0  0  0  0  0  0  0  0999 V2000
   -2.2861   -0.6809   -2.6468 C   0  0  0  0  0  0  0  0  0  0  0  0
   -0.8532   -0.2728   -2.3432 C   0  0  0  0  0  0  0  0  0  0  0  0
   -0.7155    0.2749   -0.9220 C   0  0  0  0  0  0  0  0  0  0  0  0
    0.7301    0.6837   -0.6238 C   0  0  0  0  0  0  0  0  0  0  0  0
    0.9274    1.2411    0.7899 C   0  0  0  0  0  0  0  0  0  0  0  0
    2.3460    1.6414    1.0804 C   0  0  0  0  0  0  0  0  0  0  0  0
    2.7039    2.8880    1.4115 C   0  0  0  0  0  0  0  0  0  0  0  0
    4.1235    3.1784    1.6888 C   0  0  0  0  0  0  0  0  0  0  0  0
    4.5069    4.3007    1.9961 O   0  0  0  0  0  0  0  0  0  0  0  0
   -2.3755   -1.0716   -3.6655 H   0  0  0  0  0  0  0  0  0  0  0  0
   -2.9537    0.1815   -2.5538 H   0  0  0  0  0  0  0  0  0  0  0  0
   -2.6298   -1.4529   -1.9509 H   0  0  0  0  0  0  0  0  0  0  0  0
   -0.5351    0.4858   -3.0678 H   0  0  0  0  0  0  0  0  0  0  0  0
   -0.1967   -1.1411   -2.4726 H   0  0  0  0  0  0  0  0  0  0  0  0
   -1.3756    1.1421   -0.7976 H   0  0  0  0  0  0  0  0  0  0  0  0
   -1.0459   -0.4896   -0.2096 H   0  0  0  0  0  0  0  0  0  0  0  0
    1.3965   -0.1738   -0.7810 H   0  0  0  0  0  0  0  0  0  0  0  0
    1.0360    1.4562   -1.3406 H   0  0  0  0  0  0  0  0  0  0  0  0
    0.6134    0.4961    1.5310 H   0  0  0  0  0  0  0  0  0  0  0  0
    0.2598    2.1025    0.9174 H   0  0  0  0  0  0  0  0  0  0  0  0
    3.0955    0.8555    1.0292 H   0  0  0  0  0  0  0  0  0  0  0  0
    1.9915    3.7010    1.4832 H   0  0  0  0  0  0  0  0  0  0  0  0
    4.8223    2.3295    1.6038 H   0  0  0  0  0  0  0  0  0  0  0  0
  1  2  1  0
  2  3  1  0
  3  4  1  0
  4  5  1  0
  5  6  1  0
  6  7  2  0
  7  8  1  0
  8  9  2  0
  1 10  1  0
  1 11  1  0
  1 12  1  0
  2 13  1  0
  2 14  1  0
  3 15  1  0
  3 16  1  0
  4 17  1  0
  4 18  1  0
  5 19  1  0
  5 20  1  0
  6 21  1  0
  7 22  1  0
  8 23  1  0
M  END
>  <_TriposChargeType>  (388) 
USER_CHARGES

>  <solvdG>  (388) 
-3.43

>  <fdG>  (388) 
-2.71

>  <fname>  (388) 
mobley_6081058

>  <cname>  (388) 
 oct-2-enal

>  <dataset>  (388) 
FreeSolv

$$$$
4-nitroaniline
     RDKit          3D

 16 16  0  0  0  0  0  0  0  0999 V2000
    1.8851   -1.0363   -0.1124 C   0  0  0  0  0  0  0  0  0  0  0  0
    2.9210   -1.6309    0.6081 C   0  0  0  0  0  0  0  0  0  0  0  0
    2.8783   -1.6520    2.0022 C   0  0  0  0  0  0  0  0  0  0  0  0
    1.7997   -1.0786    2.6757 C   0  0  0  0  0  0  0  0  0  0  0  0
    0.7638   -0.4841    1.9551 C   0  0  0  0  0  0  0  0  0  0  0  0
    0.8066   -0.4630    0.5610 C   0  0  0  0  0  0  0  0  0  0  0  0
   -0.2413    0.1370   -0.1676 N   0  0  0  0  0  0  0  0  0  0  0  0
    3.9336   -2.2560    2.7355 N   0  0  0  0  0  4  0  0  0  0  0  0
    4.8951   -2.7648    2.1101 O   0  0  0  0  0  0  0  0  0  0  0  0
    3.8762   -2.2641    3.9889 O   0  0  0  0  0  1  0  0  0  0  0  0
    1.9288   -1.0263   -1.1986 H   0  0  0  0  0  0  0  0  0  0  0  0
    3.7559   -2.0741    0.0708 H   0  0  0  0  0  0  0  0  0  0  0  0
    1.7548   -1.0887    3.7619 H   0  0  0  0  0  0  0  0  0  0  0  0
   -0.0716   -0.0401    2.4906 H   0  0  0  0  0  0  0  0  0  0  0  0
   -0.1762    0.1875   -1.1642 H   0  0  0  0  0  0  0  0  0  0  0  0
   -0.9856    0.5851    0.3277 H   0  0  0  0  0  0  0  0  0  0  0  0
  1  6  2  0
  1  2  1  0
  2  3  2  0
  3  4  1  0
  4  5  2  0
  5  6  1  0
  6  7  1  0
  3  8  1  0
  8  9  2  0
  8 10  1  0
  1 11  1  0
  2 12  1  0
  4 13  1  0
  5 14  1  0
  7 15  1  0
  7 16  1  0
M  CHG  2   8   1  10  -1
M  END
>  <_TriposChargeType>  (389) 
USER_CHARGES

>  <solvdG>  (389) 
-9.82

>  <fdG>  (389) 
-9.42

>  <fname>  (389) 
mobley_6082662

>  <cname>  (389) 
 4-nitroaniline

>  <dataset>  (389) 
FreeSolv

$$$$
ethylene
     RDKit          3D

  6  5  0  0  0  0  0  0  0  0999 V2000
    0.2842    1.0298   -0.1842 C   0  0  0  0  0  0  0  0  0  0  0  0
   -0.6398    1.9558   -0.4472 C   0  0  0  0  0  0  0  0  0  0  0  0
    1.3359    1.2903   -0.1502 H   0  0  0  0  0  0  0  0  0  0  0  0
    0.0000    0.0000    0.0000 H   0  0  0  0  0  0  0  0  0  0  0  0
   -1.6915    1.6952   -0.4813 H   0  0  0  0  0  0  0  0  0  0  0  0
   -0.3558    2.9856   -0.6318 H   0  0  0  0  0  0  0  0  0  0  0  0
  1  2  2  3
  1  3  1  0
  1  4  1  0
  2  5  1  0
  2  6  1  0
M  END
>  <_TriposChargeType>  (390) 
USER_CHARGES

>  <solvdG>  (390) 
1.28

>  <fdG>  (390) 
2.33

>  <fname>  (390) 
mobley_6091882

>  <cname>  (390) 
 ethylene

>  <dataset>  (390) 
FreeSolv

$$$$
phenoxybenzene
     RDKit          3D

 23 24  0  0  0  0  0  0  0  0999 V2000
    1.8835   -1.0353   -0.1125 C   0  0  0  0  0  0  0  0  0  0  0  0
    3.0687   -0.9913    0.6217 C   0  0  0  0  0  0  0  0  0  0  0  0
    3.0268   -1.0130    2.0157 C   0  0  0  0  0  0  0  0  0  0  0  0
    1.7997   -1.0786    2.6757 C   0  0  0  0  0  0  0  0  0  0  0  0
    0.6145   -1.1226    1.9415 C   0  0  0  0  0  0  0  0  0  0  0  0
    0.6564   -1.1010    0.5474 C   0  0  0  0  0  0  0  0  0  0  0  0
    1.7593   -1.0981    4.0359 O   0  0  0  0  0  0  0  0  0  0  0  0
    2.6462   -1.9333    4.6944 C   0  0  0  0  0  0  0  0  0  0  0  0
    3.3519   -1.4661    5.8032 C   0  0  0  0  0  0  0  0  0  0  0  0
    4.2451   -2.3073    6.4666 C   0  0  0  0  0  0  0  0  0  0  0  0
    4.4327   -3.6158    6.0212 C   0  0  0  0  0  0  0  0  0  0  0  0
    3.7270   -4.0830    4.9124 C   0  0  0  0  0  0  0  0  0  0  0  0
    2.8338   -3.2418    4.2490 C   0  0  0  0  0  0  0  0  0  0  0  0
    1.9165   -1.0190   -1.1979 H   0  0  0  0  0  0  0  0  0  0  0  0
    4.0239   -0.9404    0.1071 H   0  0  0  0  0  0  0  0  0  0  0  0
    3.9532   -0.9767    2.5825 H   0  0  0  0  0  0  0  0  0  0  0  0
   -0.3448   -1.1724    2.4495 H   0  0  0  0  0  0  0  0  0  0  0  0
   -0.2667   -1.1351   -0.0241 H   0  0  0  0  0  0  0  0  0  0  0  0
    3.2094   -0.4481    6.1553 H   0  0  0  0  0  0  0  0  0  0  0  0
    4.7939   -1.9440    7.3305 H   0  0  0  0  0  0  0  0  0  0  0  0
    5.1267   -4.2714    6.5386 H   0  0  0  0  0  0  0  0  0  0  0  0
    3.8727   -5.1024    4.5663 H   0  0  0  0  0  0  0  0  0  0  0  0
    2.2871   -3.6114    3.3858 H   0  0  0  0  0  0  0  0  0  0  0  0
  1  6  2  0
  1  2  1  0
  2  3  2  0
  3  4  1  0
  4  5  2  0
  5  6  1  0
  4  7  1  0
  7  8  1  0
  8 13  1  0
  8  9  2  0
  9 10  1  0
 10 11  2  0
 11 12  1  0
 12 13  2  0
  1 14  1  0
  2 15  1  0
  3 16  1  0
  5 17  1  0
  6 18  1  0
  9 19  1  0
 10 20  1  0
 11 21  1  0
 12 22  1  0
 13 23  1  0
M  END
>  <_TriposChargeType>  (391) 
USER_CHARGES

>  <solvdG>  (391) 
-2.87

>  <fdG>  (391) 
-2.81

>  <fname>  (391) 
mobley_6102880

>  <cname>  (391) 
 diphenyl ether

>  <dataset>  (391) 
FreeSolv

$$$$
trimethyl phosphate
     RDKit          3D

 17 16  0  0  0  0  0  0  0  0999 V2000
    1.0022   -0.2850   -0.3279 C   0  0  0  0  0  0  0  0  0  0  0  0
    1.0804   -0.1386   -1.7355 O   0  0  0  0  0  0  0  0  0  0  0  0
    2.4477   -0.5829   -2.4828 P   0  0  0  0  0  5  0  0  0  0  0  0
    2.8147   -2.0294   -2.3083 O   0  0  0  0  0  0  0  0  0  0  0  0
    2.1854   -0.1335   -4.0172 O   0  0  0  0  0  0  0  0  0  0  0  0
    3.2018   -0.3765   -4.9748 C   0  0  0  0  0  0  0  0  0  0  0  0
    3.5625    0.4610   -1.9406 O   0  0  0  0  0  0  0  0  0  0  0  0
    3.4017    1.8520   -2.1603 C   0  0  0  0  0  0  0  0  0  0  0  0
    0.0244    0.0561    0.0209 H   0  0  0  0  0  0  0  0  0  0  0  0
    1.7944    0.3010    0.1448 H   0  0  0  0  0  0  0  0  0  0  0  0
    1.1301   -1.3396   -0.0726 H   0  0  0  0  0  0  0  0  0  0  0  0
    2.8729   -0.0183   -5.9528 H   0  0  0  0  0  0  0  0  0  0  0  0
    3.4125   -1.4475   -5.0177 H   0  0  0  0  0  0  0  0  0  0  0  0
    4.1049    0.1600   -4.6763 H   0  0  0  0  0  0  0  0  0  0  0  0
    4.2476    2.3889   -1.7255 H   0  0  0  0  0  0  0  0  0  0  0  0
    2.4681    2.1868   -1.7026 H   0  0  0  0  0  0  0  0  0  0  0  0
    3.3669    2.0386   -3.2357 H   0  0  0  0  0  0  0  0  0  0  0  0
  1  2  1  0
  2  3  1  0
  3  4  2  0
  3  5  1  0
  5  6  1  0
  3  7  1  0
  7  8  1  0
  1  9  1  0
  1 10  1  0
  1 11  1  0
  6 12  1  0
  6 13  1  0
  6 14  1  0
  8 15  1  0
  8 16  1  0
  8 17  1  0
M  END
>  <_TriposChargeType>  (392) 
USER_CHARGES

>  <solvdG>  (392) 
-8.7

>  <fdG>  (392) 
-10.64

>  <fname>  (392) 
mobley_6115639

>  <cname>  (392) 
 trimethyl phosphate

>  <dataset>  (392) 
FreeSolv

$$$$
4-methylbenzaldehyde
     RDKit          3D

 17 17  0  0  0  0  0  0  0  0999 V2000
    1.9301   -1.0136   -1.6031 C   0  0  0  0  0  0  0  0  0  0  0  0
    1.8851   -1.0363   -0.1124 C   0  0  0  0  0  0  0  0  0  0  0  0
    2.9210   -1.6309    0.6081 C   0  0  0  0  0  0  0  0  0  0  0  0
    2.8783   -1.6520    2.0022 C   0  0  0  0  0  0  0  0  0  0  0  0
    1.7997   -1.0786    2.6757 C   0  0  0  0  0  0  0  0  0  0  0  0
    0.7638   -0.4841    1.9551 C   0  0  0  0  0  0  0  0  0  0  0  0
    0.8066   -0.4630    0.5610 C   0  0  0  0  0  0  0  0  0  0  0  0
    1.7553   -1.1010    4.1293 C   0  0  0  0  0  0  0  0  0  0  0  0
    0.8299   -0.6115    4.7826 O   0  0  0  0  0  0  0  0  0  0  0  0
    2.4377   -0.1078   -1.9487 H   0  0  0  0  0  0  0  0  0  0  0  0
    2.4627   -1.8880   -1.9916 H   0  0  0  0  0  0  0  0  0  0  0  0
    0.9197   -1.0362   -2.0250 H   0  0  0  0  0  0  0  0  0  0  0  0
    3.7653   -2.0798    0.0916 H   0  0  0  0  0  0  0  0  0  0  0  0
    3.6905   -2.1181    2.5539 H   0  0  0  0  0  0  0  0  0  0  0  0
   -0.0812   -0.0346    2.4698 H   0  0  0  0  0  0  0  0  0  0  0  0
   -0.0050    0.0024    0.0078 H   0  0  0  0  0  0  0  0  0  0  0  0
    2.6039   -1.5857    4.6594 H   0  0  0  0  0  0  0  0  0  0  0  0
  1  2  1  0
  2  7  2  0
  2  3  1  0
  3  4  2  0
  4  5  1  0
  5  6  2  0
  6  7  1  0
  5  8  1  0
  8  9  2  0
  1 10  1  0
  1 11  1  0
  1 12  1  0
  3 13  1  0
  4 14  1  0
  6 15  1  0
  7 16  1  0
  8 17  1  0
M  END
>  <_TriposChargeType>  (393) 
USER_CHARGES

>  <solvdG>  (393) 
-4.27

>  <fdG>  (393) 
-5.01

>  <fname>  (393) 
mobley_6175884

>  <cname>  (393) 
 4-methylbenzaldehyde

>  <dataset>  (393) 
FreeSolv

$$$$
1,1,2,2-tetrachloroethane
     RDKit          3D

  8  7  0  0  0  0  0  0  0  0999 V2000
   -0.4361    0.0140    0.6394 C   0  0  0  0  0  0  0  0  0  0  0  0
    0.4211    0.2029   -0.6170 C   0  0  0  0  0  0  0  0  0  0  0  0
    1.5989   -1.1152   -0.8717 Cl  0  0  0  0  0  0  0  0  0  0  0  0
   -0.5997    0.3687   -2.0747 Cl  0  0  0  0  0  0  0  0  0  0  0  0
   -1.4016   -1.4882    0.6147 Cl  0  0  0  0  0  0  0  0  0  0  0  0
    0.5701    0.0415    2.1162 Cl  0  0  0  0  0  0  0  0  0  0  0  0
   -1.1450    0.8417    0.7388 H   0  0  0  0  0  0  0  0  0  0  0  0
    0.9976    1.1302   -0.5427 H   0  0  0  0  0  0  0  0  0  0  0  0
  1  2  1  0
  2  3  1  0
  2  4  1  0
  1  5  1  0
  1  6  1  0
  1  7  1  0
  2  8  1  0
M  END
>  <_TriposChargeType>  (394) 
USER_CHARGES

>  <solvdG>  (394) 
-2.37

>  <fdG>  (394) 
-0.53

>  <fname>  (394) 
mobley_6190089

>  <cname>  (394) 
 1,1,2,2-tetrachloroethane

>  <dataset>  (394) 
FreeSolv

$$$$
2,6-dichloro-4-hydroxy-3,5-dimethoxy-benzaldehyde
     RDKit          3D

 23 23  0  0  0  0  0  0  0  0999 V2000
    2.5868    0.0900   -2.0807 C   0  0  0  0  0  0  0  0  0  0  0  0
    1.9449   -1.0265   -1.4758 O   0  0  0  0  0  0  0  0  0  0  0  0
    1.8851   -1.0363   -0.1124 C   0  0  0  0  0  0  0  0  0  0  0  0
    2.9210   -1.6309    0.6081 C   0  0  0  0  0  0  0  0  0  0  0  0
    2.8783   -1.6520    2.0022 C   0  0  0  0  0  0  0  0  0  0  0  0
    1.7997   -1.0786    2.6757 C   0  0  0  0  0  0  0  0  0  0  0  0
    0.7638   -0.4841    1.9551 C   0  0  0  0  0  0  0  0  0  0  0  0
    0.8066   -0.4630    0.5610 C   0  0  0  0  0  0  0  0  0  0  0  0
   -0.4725    0.2680   -0.3528 Cl  0  0  0  0  0  0  0  0  0  0  0  0
   -0.3674    0.1167    2.6612 C   0  0  0  0  0  0  0  0  0  0  0  0
   -0.6624    1.3057    2.5555 O   0  0  0  0  0  0  0  0  0  0  0  0
    1.7661   -1.1130    4.4084 Cl  0  0  0  0  0  0  0  0  0  0  0  0
    3.9011   -2.2390    2.6896 O   0  0  0  0  0  0  0  0  0  0  0  0
    4.9987   -1.4050    3.0503 C   0  0  0  0  0  0  0  0  0  0  0  0
    3.9760   -2.1907   -0.0503 O   0  0  0  0  0  0  0  0  0  0  0  0
    2.5678   -0.0226   -3.1674 H   0  0  0  0  0  0  0  0  0  0  0  0
    3.6194    0.1527   -1.7282 H   0  0  0  0  0  0  0  0  0  0  0  0
    2.0526    1.0013   -1.8017 H   0  0  0  0  0  0  0  0  0  0  0  0
   -0.9661   -0.5508    3.3122 H   0  0  0  0  0  0  0  0  0  0  0  0
    5.7354   -1.9997    3.5897 H   0  0  0  0  0  0  0  0  0  0  0  0
    4.6356   -0.5886    3.6744 H   0  0  0  0  0  0  0  0  0  0  0  0
    5.4430   -1.0043    2.1396 H   0  0  0  0  0  0  0  0  0  0  0  0
    3.8600   -2.0953   -1.0082 H   0  0  0  0  0  0  0  0  0  0  0  0
  1  2  1  0
  2  3  1  0
  3  8  2  0
  3  4  1  0
  4  5  2  0
  5  6  1  0
  6  7  2  0
  7  8  1  0
  8  9  1  0
  7 10  1  0
 10 11  2  0
  6 12  1  0
  5 13  1  0
 13 14  1  0
  4 15  1  0
  1 16  1  0
  1 17  1  0
  1 18  1  0
 10 19  1  0
 14 20  1  0
 14 21  1  0
 14 22  1  0
 15 23  1  0
M  END
>  <_TriposChargeType>  (395) 
USER_CHARGES

>  <solvdG>  (395) 
-8.68

>  <fdG>  (395) 
-9.85

>  <fname>  (395) 
mobley_6195751

>  <cname>  (395) 
 2,6-dichlorosyringaldehyde

>  <dataset>  (395) 
FreeSolv

$$$$
2,3-diacetoxypropyl acetate
     RDKit          3D

 29 28  0  0  0  0  0  0  0  0999 V2000
    1.1588    2.1227    3.2627 C   0  0  0  0  0  0  0  0  0  0  0  0
    0.9655    1.0111    2.2762 C   0  0  0  0  0  0  0  0  0  0  0  0
    0.7164   -0.1456    2.5875 O   0  0  0  0  0  0  0  0  0  0  0  0
    1.1111    1.4951    1.0099 O   0  0  0  0  0  0  0  0  0  0  0  0
    0.9523    0.5385   -0.0326 C   0  0  0  0  0  0  0  0  0  0  0  0
    1.1440    1.2331   -1.3744 C   0  0  0  0  0  0  0  0  0  0  0  0
    0.9856    0.2573   -2.5348 C   0  0  0  0  0  0  0  0  0  0  0  0
    1.9529   -0.7819   -2.4276 O   0  0  0  0  0  0  0  0  0  0  0  0
    1.9182   -1.7285   -3.4127 C   0  0  0  0  0  0  0  0  0  0  0  0
    1.1425   -1.7574   -4.3586 O   0  0  0  0  0  0  0  0  0  0  0  0
    2.9863   -2.7518   -3.1717 C   0  0  0  0  0  0  0  0  0  0  0  0
    2.4671    1.7733   -1.4064 O   0  0  0  0  0  0  0  0  0  0  0  0
    2.6181    2.9145   -2.1383 C   0  0  0  0  0  0  0  0  0  0  0  0
    1.7398    3.5020   -2.7552 O   0  0  0  0  0  0  0  0  0  0  0  0
    4.0470    3.3629   -2.0812 C   0  0  0  0  0  0  0  0  0  0  0  0
    2.2128    2.1907    3.5430 H   0  0  0  0  0  0  0  0  0  0  0  0
    0.5360    1.9490    4.1439 H   0  0  0  0  0  0  0  0  0  0  0  0
    0.8578    3.0697    2.8055 H   0  0  0  0  0  0  0  0  0  0  0  0
    1.6987   -0.2487    0.1169 H   0  0  0  0  0  0  0  0  0  0  0  0
   -0.0518    0.1109    0.0500 H   0  0  0  0  0  0  0  0  0  0  0  0
    0.4552    2.0798   -1.4720 H   0  0  0  0  0  0  0  0  0  0  0  0
    1.1267    0.7531   -3.5003 H   0  0  0  0  0  0  0  0  0  0  0  0
   -0.0018   -0.2149   -2.5212 H   0  0  0  0  0  0  0  0  0  0  0  0
    2.5911   -3.5618   -2.5538 H   0  0  0  0  0  0  0  0  0  0  0  0
    3.8470   -2.2828   -2.6883 H   0  0  0  0  0  0  0  0  0  0  0  0
    3.3105   -3.1700   -4.1291 H   0  0  0  0  0  0  0  0  0  0  0  0
    4.6105    2.9111   -2.9012 H   0  0  0  0  0  0  0  0  0  0  0  0
    4.4832    3.0896   -1.1171 H   0  0  0  0  0  0  0  0  0  0  0  0
    4.0901    4.4509   -2.1863 H   0  0  0  0  0  0  0  0  0  0  0  0
  1  2  1  0
  2  3  2  0
  2  4  1  0
  4  5  1  0
  5  6  1  0
  6  7  1  0
  7  8  1  0
  8  9  1  0
  9 10  2  0
  9 11  1  0
  6 12  1  0
 12 13  1  0
 13 14  2  0
 13 15  1  0
  1 16  1  0
  1 17  1  0
  1 18  1  0
  5 19  1  0
  5 20  1  0
  6 21  1  0
  7 22  1  0
  7 23  1  0
 11 24  1  0
 11 25  1  0
 11 26  1  0
 15 27  1  0
 15 28  1  0
 15 29  1  0
M  END
>  <_TriposChargeType>  (396) 
USER_CHARGES

>  <solvdG>  (396) 
-8.84

>  <fdG>  (396) 
-12.33

>  <fname>  (396) 
mobley_6198745

>  <cname>  (396) 
 2,3-diacetoxypropyl acetate

>  <dataset>  (396) 
FreeSolv

$$$$
propyl 4-hydroxybenzoate
     RDKit          3D

 25 25  0  0  0  0  0  0  0  0999 V2000
    0.1273   -0.8831    0.7360 C   0  0  0  0  0  0  0  0  0  0  0  0
    1.3675   -0.6499    1.5799 C   0  0  0  0  0  0  0  0  0  0  0  0
    1.2747   -1.3491    2.9275 C   0  0  0  0  0  0  0  0  0  0  0  0
    2.4629   -1.0899    3.6622 O   0  0  0  0  0  0  0  0  0  0  0  0
    2.5354   -1.6512    4.9011 C   0  0  0  0  0  0  0  0  0  0  0  0
    1.6787   -2.3468    5.4242 O   0  0  0  0  0  0  0  0  0  0  0  0
    3.8191   -1.3053    5.5621 C   0  0  0  0  0  0  0  0  0  0  0  0
    4.0945   -1.7821    6.8438 C   0  0  0  0  0  0  0  0  0  0  0  0
    5.3007   -1.4571    7.4645 C   0  0  0  0  0  0  0  0  0  0  0  0
    6.2313   -0.6554    6.8036 C   0  0  0  0  0  0  0  0  0  0  0  0
    5.9558   -0.1786    5.5220 C   0  0  0  0  0  0  0  0  0  0  0  0
    4.7497   -0.5036    4.9013 C   0  0  0  0  0  0  0  0  0  0  0  0
    7.4085   -0.3378    7.4086 O   0  0  0  0  0  0  0  0  0  0  0  0
    0.2089   -0.3742   -0.2298 H   0  0  0  0  0  0  0  0  0  0  0  0
   -0.0070   -1.9526    0.5458 H   0  0  0  0  0  0  0  0  0  0  0  0
   -0.7686   -0.5135    1.2448 H   0  0  0  0  0  0  0  0  0  0  0  0
    1.5167    0.4257    1.7329 H   0  0  0  0  0  0  0  0  0  0  0  0
    2.2556   -1.0033    1.0424 H   0  0  0  0  0  0  0  0  0  0  0  0
    0.4211   -0.9770    3.5030 H   0  0  0  0  0  0  0  0  0  0  0  0
    1.1732   -2.4316    2.7998 H   0  0  0  0  0  0  0  0  0  0  0  0
    3.3766   -2.4070    7.3685 H   0  0  0  0  0  0  0  0  0  0  0  0
    5.5099   -1.8324    8.4624 H   0  0  0  0  0  0  0  0  0  0  0  0
    6.6768    0.4468    5.0024 H   0  0  0  0  0  0  0  0  0  0  0  0
    4.5454   -0.1274    3.9020 H   0  0  0  0  0  0  0  0  0  0  0  0
    7.4531   -0.7410    8.2902 H   0  0  0  0  0  0  0  0  0  0  0  0
  1  2  1  0
  2  3  1  0
  3  4  1  0
  4  5  1  0
  5  6  2  0
  5  7  1  0
  7 12  2  0
  7  8  1  0
  8  9  2  0
  9 10  1  0
 10 11  2  0
 11 12  1  0
 10 13  1  0
  1 14  1  0
  1 15  1  0
  1 16  1  0
  2 17  1  0
  2 18  1  0
  3 19  1  0
  3 20  1  0
  8 21  1  0
  9 22  1  0
 11 23  1  0
 12 24  1  0
 13 25  1  0
M  END
>  <_TriposChargeType>  (397) 
USER_CHARGES

>  <solvdG>  (397) 
-9.37

>  <fdG>  (397) 
-8.95

>  <fname>  (397) 
mobley_6201330

>  <cname>  (397) 
 propyl paraben

>  <dataset>  (397) 
FreeSolv

$$$$
pyridine-3-carbaldehyde
     RDKit          3D

 13 13  0  0  0  0  0  0  0  0999 V2000
    1.6520   -0.6227    2.8997 C   0  0  0  0  0  0  0  0  0  0  0  0
    1.3879   -0.0684    1.6522 C   0  0  0  0  0  0  0  0  0  0  0  0
    0.2265   -0.4197    0.9733 C   0  0  0  0  0  0  0  0  0  0  0  0
   -0.6317   -1.3224    1.5803 C   0  0  0  0  0  0  0  0  0  0  0  0
   -0.4092   -1.8816    2.7908 N   0  0  0  0  0  0  0  0  0  0  0  0
    0.7299   -1.5161    3.4206 C   0  0  0  0  0  0  0  0  0  0  0  0
   -0.0768    0.1408   -0.3318 C   0  0  0  0  0  0  0  0  0  0  0  0
    0.6601    0.9467   -0.9090 O   0  0  0  0  0  0  0  0  0  0  0  0
    2.5500   -0.3619    3.4479 H   0  0  0  0  0  0  0  0  0  0  0  0
    2.0922    0.6368    1.2191 H   0  0  0  0  0  0  0  0  0  0  0  0
   -1.5539   -1.6337    1.0989 H   0  0  0  0  0  0  0  0  0  0  0  0
    0.8885   -1.9751    4.3909 H   0  0  0  0  0  0  0  0  0  0  0  0
   -1.0226   -0.1812   -0.8216 H   0  0  0  0  0  0  0  0  0  0  0  0
  1  6  2  0
  1  2  1  0
  2  3  2  0
  3  4  1  0
  4  5  2  0
  5  6  1  0
  3  7  1  0
  7  8  2  0
  1  9  1  0
  2 10  1  0
  4 11  1  0
  6 12  1  0
  7 13  1  0
M  END
>  <_TriposChargeType>  (398) 
USER_CHARGES

>  <solvdG>  (398) 
-7.1

>  <fdG>  (398) 
-7.42

>  <fname>  (398) 
mobley_6232400

>  <cname>  (398) 
 pyridine-3-carbaldehyde

>  <dataset>  (398) 
FreeSolv

$$$$
(2S)-2-chlorobutane
     RDKit          3D

 14 13  0  0  0  0  0  0  0  0999 V2000
    0.7302    0.2079    1.7967 C   0  0  0  0  0  0  0  0  0  0  0  0
    0.4931    0.4908    0.3189 C   0  0  0  0  0  0  0  0  0  0  0  0
   -0.4823   -0.4901   -0.3421 C   0  0  2  0  0  0  0  0  0  0  0  0
   -0.0926   -1.5110   -0.2663 H   0  0  0  0  0  0  0  0  0  0  0  0
   -0.6972   -0.1459   -1.8112 C   0  0  0  0  0  0  0  0  0  0  0  0
   -2.0686   -0.4793    0.4864 Cl  0  0  0  0  0  0  0  0  0  0  0  0
    1.4325    0.9391    2.2097 H   0  0  0  0  0  0  0  0  0  0  0  0
    1.1566   -0.7867    1.9563 H   0  0  0  0  0  0  0  0  0  0  0  0
   -0.2034    0.2792    2.3638 H   0  0  0  0  0  0  0  0  0  0  0  0
    1.4551    0.4868   -0.2082 H   0  0  0  0  0  0  0  0  0  0  0  0
    0.0913    1.5079    0.2296 H   0  0  0  0  0  0  0  0  0  0  0  0
   -1.3942   -0.8477   -2.2819 H   0  0  0  0  0  0  0  0  0  0  0  0
   -1.1206    0.8590   -1.9141 H   0  0  0  0  0  0  0  0  0  0  0  0
    0.2433   -0.1732   -2.3725 H   0  0  0  0  0  0  0  0  0  0  0  0
  1  2  1  0
  2  3  1  0
  3  4  1  6
  3  5  1  0
  3  6  1  0
  1  7  1  0
  1  8  1  0
  1  9  1  0
  2 10  1  0
  2 11  1  0
  5 12  1  0
  5 13  1  0
  5 14  1  0
M  END
>  <_TriposChargeType>  (399) 
USER_CHARGES

>  <solvdG>  (399) 
0.0

>  <fdG>  (399) 
0.93

>  <fname>  (399) 
mobley_6235784

>  <cname>  (399) 
 2-chlorobutane

>  <dataset>  (399) 
FreeSolv

$$$$
1,3,5-triazinane-2,4,6-trione
     RDKit          3D

 12 12  0  0  0  0  0  0  0  0999 V2000
   -0.6629    1.1635    0.5052 C   0  0  0  0  0  0  0  0  0  0  0  0
   -1.2339    2.1640    0.9397 O   0  0  0  0  0  0  0  0  0  0  0  0
   -0.4836    0.0076    1.2611 N   0  0  0  0  0  0  0  0  0  0  0  0
    0.1500   -1.1556    0.8309 C   0  0  0  0  0  0  0  0  0  0  0  0
    0.2791   -2.1498    1.5456 O   0  0  0  0  0  0  0  0  0  0  0  0
    0.6254   -1.0981   -0.4769 N   0  0  0  0  0  0  0  0  0  0  0  0
    0.5130   -0.0078   -1.3362 C   0  0  0  0  0  0  0  0  0  0  0  0
    0.9544   -0.0144   -2.4855 O   0  0  0  0  0  0  0  0  0  0  0  0
   -0.1414    1.0907   -0.7841 N   0  0  0  0  0  0  0  0  0  0  0  0
   -0.8471    0.0134    2.2098 H   0  0  0  0  0  0  0  0  0  0  0  0
    1.0955   -1.9242   -0.8357 H   0  0  0  0  0  0  0  0  0  0  0  0
   -0.2474    1.9113   -1.3737 H   0  0  0  0  0  0  0  0  0  0  0  0
  1  9  1  0
  1  2  2  0
  1  3  1  0
  3  4  1  0
  4  5  2  0
  4  6  1  0
  6  7  1  0
  7  8  2  0
  7  9  1  0
  3 10  1  0
  6 11  1  0
  9 12  1  0
M  END
>  <_TriposChargeType>  (400) 
USER_CHARGES

>  <solvdG>  (400) 
-18.06

>  <fdG>  (400) 
-21.76

>  <fname>  (400) 
mobley_6239320

>  <cname>  (400) 
 cyanuric acid

>  <dataset>  (400) 
FreeSolv

$$$$
octan-1-amine
     RDKit          3D

 28 27  0  0  0  0  0  0  0  0999 V2000
    4.0830   -1.0329    3.7438 C   0  0  0  0  0  0  0  0  0  0  0  0
    3.4618   -0.0557    2.7586 C   0  0  0  0  0  0  0  0  0  0  0  0
    4.4956    0.4654    1.7595 C   0  0  0  0  0  0  0  0  0  0  0  0
    3.8644    1.4479    0.7711 C   0  0  0  0  0  0  0  0  0  0  0  0
    4.8562    2.0034   -0.2556 C   0  0  0  0  0  0  0  0  0  0  0  0
    4.2826    2.9942   -1.2741 C   0  0  0  0  0  0  0  0  0  0  0  0
    5.3230    3.5125   -2.2720 C   0  0  0  0  0  0  0  0  0  0  0  0
    4.7303    4.4969   -3.2761 C   0  0  0  0  0  0  0  0  0  0  0  0
    5.7064    4.9827   -4.2117 N   0  0  0  0  0  0  0  0  0  0  0  0
    3.3269   -1.3928    4.4485 H   0  0  0  0  0  0  0  0  0  0  0  0
    4.5035   -1.8999    3.2244 H   0  0  0  0  0  0  0  0  0  0  0  0
    4.8829   -0.5551    4.3185 H   0  0  0  0  0  0  0  0  0  0  0  0
    3.0228    0.7823    3.3124 H   0  0  0  0  0  0  0  0  0  0  0  0
    2.6455   -0.5545    2.2234 H   0  0  0  0  0  0  0  0  0  0  0  0
    5.3117    0.9601    2.2998 H   0  0  0  0  0  0  0  0  0  0  0  0
    4.9299   -0.3835    1.2195 H   0  0  0  0  0  0  0  0  0  0  0  0
    3.0204    0.9711    0.2598 H   0  0  0  0  0  0  0  0  0  0  0  0
    3.4450    2.2957    1.3278 H   0  0  0  0  0  0  0  0  0  0  0  0
    5.6786    2.4882    0.2852 H   0  0  0  0  0  0  0  0  0  0  0  0
    5.3025    1.1646   -0.8044 H   0  0  0  0  0  0  0  0  0  0  0  0
    3.8126    3.8374   -0.7550 H   0  0  0  0  0  0  0  0  0  0  0  0
    3.4786    2.4831   -1.8178 H   0  0  0  0  0  0  0  0  0  0  0  0
    5.7752    2.6668   -2.8044 H   0  0  0  0  0  0  0  0  0  0  0  0
    6.1266    4.0250   -1.7320 H   0  0  0  0  0  0  0  0  0  0  0  0
    4.3301    5.3701   -2.7510 H   0  0  0  0  0  0  0  0  0  0  0  0
    3.9157    4.0399   -3.8470 H   0  0  0  0  0  0  0  0  0  0  0  0
    5.9263    4.4299   -5.0258 H   0  0  0  0  0  0  0  0  0  0  0  0
    6.3001    5.7540   -3.9483 H   0  0  0  0  0  0  0  0  0  0  0  0
  1  2  1  0
  2  3  1  0
  3  4  1  0
  4  5  1  0
  5  6  1  0
  6  7  1  0
  7  8  1  0
  8  9  1  0
  1 10  1  0
  1 11  1  0
  1 12  1  0
  2 13  1  0
  2 14  1  0
  3 15  1  0
  3 16  1  0
  4 17  1  0
  4 18  1  0
  5 19  1  0
  5 20  1  0
  6 21  1  0
  6 22  1  0
  7 23  1  0
  7 24  1  0
  8 25  1  0
  8 26  1  0
  9 27  1  0
  9 28  1  0
M  END
>  <_TriposChargeType>  (401) 
USER_CHARGES

>  <solvdG>  (401) 
-3.65

>  <fdG>  (401) 
-2.59

>  <fname>  (401) 
mobley_6248915

>  <cname>  (401) 
 octan-1-amine

>  <dataset>  (401) 
FreeSolv

$$$$
1-iodohexane
     RDKit          3D

 20 19  0  0  0  0  0  0  0  0999 V2000
    0.1789    1.6251   -2.7503 C   0  0  0  0  0  0  0  0  0  0  0  0
   -0.5265    1.1632   -1.4853 C   0  0  0  0  0  0  0  0  0  0  0  0
    0.3544    0.2211   -0.6651 C   0  0  0  0  0  0  0  0  0  0  0  0
   -0.3595   -0.2414    0.6074 C   0  0  0  0  0  0  0  0  0  0  0  0
    0.5265   -1.1859    1.4274 C   0  0  0  0  0  0  0  0  0  0  0  0
   -0.1420   -1.6779    2.7121 C   0  0  0  0  0  0  0  0  0  0  0  0
    1.1153   -2.9926    3.8352 I   0  0  0  0  0  0  0  0  0  0  0  0
   -0.4587    2.2990   -3.3314 H   0  0  0  0  0  0  0  0  0  0  0  0
    0.4280    0.7656   -3.3806 H   0  0  0  0  0  0  0  0  0  0  0  0
    1.1083    2.1518   -2.5113 H   0  0  0  0  0  0  0  0  0  0  0  0
   -0.7960    2.0391   -0.8837 H   0  0  0  0  0  0  0  0  0  0  0  0
   -1.4599    0.6573   -1.7583 H   0  0  0  0  0  0  0  0  0  0  0  0
    1.2881    0.7307   -0.3977 H   0  0  0  0  0  0  0  0  0  0  0  0
    0.6245   -0.6510   -1.2730 H   0  0  0  0  0  0  0  0  0  0  0  0
   -1.2903   -0.7549    0.3375 H   0  0  0  0  0  0  0  0  0  0  0  0
   -0.6355    0.6357    1.2026 H   0  0  0  0  0  0  0  0  0  0  0  0
    1.4858   -0.7031    1.6501 H   0  0  0  0  0  0  0  0  0  0  0  0
    0.7545   -2.0641    0.8097 H   0  0  0  0  0  0  0  0  0  0  0  0
   -0.4507   -0.8294    3.3324 H   0  0  0  0  0  0  0  0  0  0  0  0
   -1.0533   -2.2259    2.4462 H   0  0  0  0  0  0  0  0  0  0  0  0
  1  2  1  0
  2  3  1  0
  3  4  1  0
  4  5  1  0
  5  6  1  0
  6  7  1  0
  1  8  1  0
  1  9  1  0
  1 10  1  0
  2 11  1  0
  2 12  1  0
  3 13  1  0
  3 14  1  0
  4 15  1  0
  4 16  1  0
  5 17  1  0
  5 18  1  0
  6 19  1  0
  6 20  1  0
M  END
>  <_TriposChargeType>  (402) 
USER_CHARGES

>  <solvdG>  (402) 
0.08

>  <fdG>  (402) 
0.04

>  <fname>  (402) 
mobley_6250025

>  <cname>  (402) 
 1-iodohexane

>  <dataset>  (402) 
FreeSolv

$$$$
3-chloroaniline
     RDKit          3D

 14 14  0  0  0  0  0  0  0  0999 V2000
    1.8851   -1.0363   -0.1124 C   0  0  0  0  0  0  0  0  0  0  0  0
    2.9210   -1.6309    0.6081 C   0  0  0  0  0  0  0  0  0  0  0  0
    2.8783   -1.6520    2.0022 C   0  0  0  0  0  0  0  0  0  0  0  0
    1.7997   -1.0786    2.6757 C   0  0  0  0  0  0  0  0  0  0  0  0
    0.7638   -0.4841    1.9551 C   0  0  0  0  0  0  0  0  0  0  0  0
    0.8066   -0.4630    0.5610 C   0  0  0  0  0  0  0  0  0  0  0  0
   -0.5669    0.2241    2.7853 Cl  0  0  0  0  0  0  0  0  0  0  0  0
    3.9260   -2.2530    2.7304 N   0  0  0  0  0  0  0  0  0  0  0  0
    1.9188   -1.0194   -1.1979 H   0  0  0  0  0  0  0  0  0  0  0  0
    3.7570   -2.0741    0.0733 H   0  0  0  0  0  0  0  0  0  0  0  0
    1.7699   -1.0968    3.7631 H   0  0  0  0  0  0  0  0  0  0  0  0
    0.0065   -0.0033   -0.0136 H   0  0  0  0  0  0  0  0  0  0  0  0
    4.6698   -2.7016    2.2349 H   0  0  0  0  0  0  0  0  0  0  0  0
    3.8609   -2.3034    3.7270 H   0  0  0  0  0  0  0  0  0  0  0  0
  1  6  2  0
  1  2  1  0
  2  3  2  0
  3  4  1  0
  4  5  2  0
  5  6  1  0
  5  7  1  0
  3  8  1  0
  1  9  1  0
  2 10  1  0
  4 11  1  0
  6 12  1  0
  8 13  1  0
  8 14  1  0
M  END
>  <_TriposChargeType>  (403) 
USER_CHARGES

>  <solvdG>  (403) 
-5.82

>  <fdG>  (403) 
-5.14

>  <fname>  (403) 
mobley_6257907

>  <cname>  (403) 
 3-chloroaniline

>  <dataset>  (403) 
FreeSolv

$$$$
azetidine
     RDKit          3D

 11 11  0  0  0  0  0  0  0  0999 V2000
    0.8686   -0.4836   -0.4587 C   0  0  0  0  0  0  0  0  0  0  0  0
    1.7750    0.4761   -1.2453 C   0  0  0  0  0  0  0  0  0  0  0  0
    1.0597    0.1020   -2.5174 N   0  0  0  0  0  0  0  0  0  0  0  0
    0.5736   -1.1399   -1.8165 C   0  0  0  0  0  0  0  0  0  0  0  0
   -0.0018    0.0031   -0.0048 H   0  0  0  0  0  0  0  0  0  0  0  0
    1.3626   -1.1136    0.2847 H   0  0  0  0  0  0  0  0  0  0  0  0
    1.6955    1.5328   -0.9753 H   0  0  0  0  0  0  0  0  0  0  0  0
    2.8324    0.1886   -1.2546 H   0  0  0  0  0  0  0  0  0  0  0  0
    1.7031   -0.1080   -3.2815 H   0  0  0  0  0  0  0  0  0  0  0  0
   -0.4746   -1.3867   -2.0074 H   0  0  0  0  0  0  0  0  0  0  0  0
    1.1913   -2.0181   -2.0345 H   0  0  0  0  0  0  0  0  0  0  0  0
  1  4  1  0
  1  2  1  0
  2  3  1  0
  3  4  1  0
  1  5  1  0
  1  6  1  0
  2  7  1  0
  2  8  1  0
  3  9  1  0
  4 10  1  0
  4 11  1  0
M  END
>  <_TriposChargeType>  (404) 
USER_CHARGES

>  <solvdG>  (404) 
-5.56

>  <fdG>  (404) 
-3.86

>  <fname>  (404) 
mobley_6266306

>  <cname>  (404) 
 azetidine

>  <dataset>  (404) 
FreeSolv

$$$$
1-bromo-2-methyl-propane
     RDKit          3D

 14 13  0  0  0  0  0  0  0  0999 V2000
    0.5614   -0.7587    1.0935 C   0  0  0  0  0  0  0  0  0  0  0  0
   -0.3604   -0.1374    0.0403 C   0  0  0  0  0  0  0  0  0  0  0  0
   -0.5284    1.3564    0.3292 C   0  0  0  0  0  0  0  0  0  0  0  0
    0.1782   -0.3277   -1.3773 C   0  0  0  0  0  0  0  0  0  0  0  0
    0.3632   -2.2180   -1.8166 Br  0  0  0  0  0  0  0  0  0  0  0  0
    0.7027   -1.8304    0.9149 H   0  0  0  0  0  0  0  0  0  0  0  0
    1.5476   -0.2819    1.0730 H   0  0  0  0  0  0  0  0  0  0  0  0
    0.1605   -0.6339    2.1039 H   0  0  0  0  0  0  0  0  0  0  0  0
   -1.3481   -0.6077    0.1277 H   0  0  0  0  0  0  0  0  0  0  0  0
   -1.1840    1.8329   -0.4077 H   0  0  0  0  0  0  0  0  0  0  0  0
    0.4388    1.8693    0.3044 H   0  0  0  0  0  0  0  0  0  0  0  0
   -0.9628    1.5143    1.3221 H   0  0  0  0  0  0  0  0  0  0  0  0
    1.1624    0.1293   -1.5168 H   0  0  0  0  0  0  0  0  0  0  0  0
   -0.5103    0.0727   -2.1276 H   0  0  0  0  0  0  0  0  0  0  0  0
  1  2  1  0
  2  3  1  0
  2  4  1  0
  4  5  1  0
  1  6  1  0
  1  7  1  0
  1  8  1  0
  2  9  1  0
  3 10  1  0
  3 11  1  0
  3 12  1  0
  4 13  1  0
  4 14  1  0
M  END
>  <_TriposChargeType>  (405) 
USER_CHARGES

>  <solvdG>  (405) 
-0.03

>  <fdG>  (405) 
0.76

>  <fname>  (405) 
mobley_627267

>  <cname>  (405) 
 1-bromo-2-methyl-propane

>  <dataset>  (405) 
FreeSolv

$$$$
(2S)-1,1,1-trifluoropropan-2-ol
     RDKit          3D

 12 11  0  0  0  0  0  0  0  0999 V2000
   -0.7763    0.5918    0.8349 C   0  0  0  0  0  0  0  0  0  0  0  0
   -0.2372   -0.1769   -0.3621 C   0  0  1  0  0  0  0  0  0  0  0  0
   -0.9249   -0.9878   -0.6244 H   0  0  0  0  0  0  0  0  0  0  0  0
   -0.0318    0.7195   -1.5646 C   0  0  0  0  0  0  0  0  0  0  0  0
    0.8489    1.7065   -1.2889 F   0  0  0  0  0  0  0  0  0  0  0  0
    0.4602    0.0180   -2.6098 F   0  0  0  0  0  0  0  0  0  0  0  0
   -1.1868    1.2952   -1.9605 F   0  0  0  0  0  0  0  0  0  0  0  0
    1.0171   -0.7582   -0.0206 O   0  0  0  0  0  0  0  0  0  0  0  0
   -0.1017    1.4088    1.1138 H   0  0  0  0  0  0  0  0  0  0  0  0
   -0.9132   -0.0628    1.7007 H   0  0  0  0  0  0  0  0  0  0  0  0
   -1.7404    1.0513    0.5914 H   0  0  0  0  0  0  0  0  0  0  0  0
    0.8528   -1.3524    0.7284 H   0  0  0  0  0  0  0  0  0  0  0  0
  1  2  1  0
  2  3  1  6
  2  4  1  0
  4  5  1  0
  4  6  1  0
  4  7  1  0
  2  8  1  0
  1  9  1  0
  1 10  1  0
  1 11  1  0
  8 12  1  0
M  END
>  <_TriposChargeType>  (406) 
USER_CHARGES

>  <solvdG>  (406) 
-4.16

>  <fdG>  (406) 
-3.52

>  <fname>  (406) 
mobley_628086

>  <cname>  (406) 
 1,1,1-trifluoropropan-2-ol

>  <dataset>  (406) 
FreeSolv

$$$$
1,3-dichloro-2-(2,6-dichlorophenyl)benzene
     RDKit          3D

 22 23  0  0  0  0  0  0  0  0999 V2000
    1.8851   -1.0363   -0.1124 C   0  0  0  0  0  0  0  0  0  0  0  0
    2.9210   -1.6309    0.6081 C   0  0  0  0  0  0  0  0  0  0  0  0
    2.8783   -1.6520    2.0022 C   0  0  0  0  0  0  0  0  0  0  0  0
    1.7997   -1.0786    2.6757 C   0  0  0  0  0  0  0  0  0  0  0  0
    0.7638   -0.4841    1.9551 C   0  0  0  0  0  0  0  0  0  0  0  0
    0.8066   -0.4630    0.5610 C   0  0  0  0  0  0  0  0  0  0  0  0
   -0.6017    0.2450    2.7295 Cl  0  0  0  0  0  0  0  0  0  0  0  0
    1.7551   -1.1008    4.1301 C   0  0  0  0  0  0  0  0  0  0  0  0
    1.1508   -2.1692    4.7928 C   0  0  0  0  0  0  0  0  0  0  0  0
    1.1085   -2.1910    6.1869 C   0  0  0  0  0  0  0  0  0  0  0  0
    1.6703   -1.1445    6.9182 C   0  0  0  0  0  0  0  0  0  0  0  0
    2.2745   -0.0762    6.2554 C   0  0  0  0  0  0  0  0  0  0  0  0
    2.3168   -0.0543    4.8614 C   0  0  0  0  0  0  0  0  0  0  0  0
    3.0824    1.2989    4.1004 Cl  0  0  0  0  0  0  0  0  0  0  0  0
    0.4348   -3.4981    3.9457 Cl  0  0  0  0  0  0  0  0  0  0  0  0
    4.1947   -2.4049    2.8365 Cl  0  0  0  0  0  0  0  0  0  0  0  0
    1.9183   -1.0198   -1.1979 H   0  0  0  0  0  0  0  0  0  0  0  0
    3.7537   -2.0729    0.0668 H   0  0  0  0  0  0  0  0  0  0  0  0
    0.0079   -0.0042   -0.0166 H   0  0  0  0  0  0  0  0  0  0  0  0
    0.6426   -3.0157    6.7205 H   0  0  0  0  0  0  0  0  0  0  0  0
    1.6366   -1.1619    8.0036 H   0  0  0  0  0  0  0  0  0  0  0  0
    2.7054    0.7323    6.8408 H   0  0  0  0  0  0  0  0  0  0  0  0
  1  6  2  0
  1  2  1  0
  2  3  2  0
  3  4  1  0
  4  5  2  0
  5  6  1  0
  5  7  1  0
  4  8  1  0
  8 13  1  0
  8  9  2  0
  9 10  1  0
 10 11  2  0
 11 12  1  0
 12 13  2  0
 13 14  1  0
  9 15  1  0
  3 16  1  0
  1 17  1  0
  2 18  1  0
  6 19  1  0
 10 20  1  0
 11 21  1  0
 12 22  1  0
M  END
>  <_TriposChargeType>  (407) 
USER_CHARGES

>  <solvdG>  (407) 
-2.28

>  <fdG>  (407) 
-1.23

>  <fname>  (407) 
mobley_628951

>  <cname>  (407) 
 1,3-dichloro-2-(2,6-dichlorophenyl)benzene

>  <dataset>  (407) 
FreeSolv

$$$$
4-ethylpyridine
     RDKit          3D

 17 17  0  0  0  0  0  0  0  0999 V2000
    2.0260    2.3333    1.4326 C   0  0  0  0  0  0  0  0  0  0  0  0
    2.3469    0.8982    1.0445 C   0  0  0  0  0  0  0  0  0  0  0  0
    1.3879   -0.0684    1.6522 C   0  0  0  0  0  0  0  0  0  0  0  0
    0.2265   -0.4197    0.9733 C   0  0  0  0  0  0  0  0  0  0  0  0
   -0.6317   -1.3224    1.5803 C   0  0  0  0  0  0  0  0  0  0  0  0
   -0.4092   -1.8816    2.7908 N   0  0  0  0  0  0  0  0  0  0  0  0
    0.7299   -1.5161    3.4206 C   0  0  0  0  0  0  0  0  0  0  0  0
    1.6520   -0.6227    2.8997 C   0  0  0  0  0  0  0  0  0  0  0  0
    2.7356    3.0352    0.9815 H   0  0  0  0  0  0  0  0  0  0  0  0
    2.0767    2.4515    2.5196 H   0  0  0  0  0  0  0  0  0  0  0  0
    1.0195    2.6174    1.1071 H   0  0  0  0  0  0  0  0  0  0  0  0
    3.3687    0.6498    1.3560 H   0  0  0  0  0  0  0  0  0  0  0  0
    2.3306    0.7973   -0.0476 H   0  0  0  0  0  0  0  0  0  0  0  0
   -0.0080   -0.0059   -0.0017 H   0  0  0  0  0  0  0  0  0  0  0  0
   -1.5505   -1.6300    1.0917 H   0  0  0  0  0  0  0  0  0  0  0  0
    0.8895   -1.9761    4.3902 H   0  0  0  0  0  0  0  0  0  0  0  0
    2.5490   -0.3683    3.4537 H   0  0  0  0  0  0  0  0  0  0  0  0
  1  2  1  0
  2  3  1  0
  3  8  2  0
  3  4  1  0
  4  5  2  0
  5  6  1  0
  6  7  2  0
  7  8  1  0
  1  9  1  0
  1 10  1  0
  1 11  1  0
  2 12  1  0
  2 13  1  0
  4 14  1  0
  5 15  1  0
  7 16  1  0
  8 17  1  0
M  END
>  <_TriposChargeType>  (408) 
USER_CHARGES

>  <solvdG>  (408) 
-4.73

>  <fdG>  (408) 
-3.19

>  <fname>  (408) 
mobley_6303022

>  <cname>  (408) 
 4-ethylpyridine

>  <dataset>  (408) 
FreeSolv

$$$$
piperidine
     RDKit          3D

 17 17  0  0  0  0  0  0  0  0999 V2000
    0.5789    0.0384   -1.3659 C   0  0  0  0  0  0  0  0  0  0  0  0
    0.4799    1.2871   -0.4951 C   0  0  0  0  0  0  0  0  0  0  0  0
   -0.6602    1.1695    0.5144 C   0  0  0  0  0  0  0  0  0  0  0  0
   -0.5273   -0.0351    1.3347 N   0  0  0  0  0  0  0  0  0  0  0  0
   -0.5084   -1.2445    0.5109 C   0  0  0  0  0  0  0  0  0  0  0  0
    0.6371   -1.2155   -0.4991 C   0  0  0  0  0  0  0  0  0  0  0  0
    1.4660    0.0952   -2.0061 H   0  0  0  0  0  0  0  0  0  0  0  0
   -0.2941   -0.0153   -2.0279 H   0  0  0  0  0  0  0  0  0  0  0  0
    1.4283    1.4378    0.0360 H   0  0  0  0  0  0  0  0  0  0  0  0
    0.3251    2.1679   -1.1284 H   0  0  0  0  0  0  0  0  0  0  0  0
   -0.6601    2.0474    1.1697 H   0  0  0  0  0  0  0  0  0  0  0  0
   -1.6278    1.1630   -0.0019 H   0  0  0  0  0  0  0  0  0  0  0  0
   -1.3187   -0.0859    1.9768 H   0  0  0  0  0  0  0  0  0  0  0  0
   -0.3978   -2.1172    1.1638 H   0  0  0  0  0  0  0  0  0  0  0  0
   -1.4694   -1.3580   -0.0052 H   0  0  0  0  0  0  0  0  0  0  0  0
    1.5971   -1.2483    0.0315 H   0  0  0  0  0  0  0  0  0  0  0  0
    0.5931   -2.1068   -1.1351 H   0  0  0  0  0  0  0  0  0  0  0  0
  1  6  1  0
  1  2  1  0
  2  3  1  0
  3  4  1  0
  4  5  1  0
  5  6  1  0
  1  7  1  0
  1  8  1  0
  2  9  1  0
  2 10  1  0
  3 11  1  0
  3 12  1  0
  4 13  1  0
  5 14  1  0
  5 15  1  0
  6 16  1  0
  6 17  1  0
M  END
>  <_TriposChargeType>  (409) 
USER_CHARGES

>  <solvdG>  (409) 
-5.11

>  <fdG>  (409) 
-3.87

>  <fname>  (409) 
mobley_6309289

>  <cname>  (409) 
 piperidine

>  <dataset>  (409) 
FreeSolv

$$$$
1-(4-methoxyphenyl)ethanone
     RDKit          3D

 21 21  0  0  0  0  0  0  0  0999 V2000
    1.2626    0.1365   -2.2515 C   0  0  0  0  0  0  0  0  0  0  0  0
    1.9295   -1.0140   -1.5659 C   0  0  0  0  0  0  0  0  0  0  0  0
    2.4684   -1.8709   -2.2586 O   0  0  0  0  0  0  0  0  0  0  0  0
    1.8851   -1.0363   -0.1124 C   0  0  0  0  0  0  0  0  0  0  0  0
    2.9210   -1.6309    0.6081 C   0  0  0  0  0  0  0  0  0  0  0  0
    2.8783   -1.6520    2.0022 C   0  0  0  0  0  0  0  0  0  0  0  0
    1.7997   -1.0786    2.6757 C   0  0  0  0  0  0  0  0  0  0  0  0
    0.7638   -0.4841    1.9551 C   0  0  0  0  0  0  0  0  0  0  0  0
    0.8066   -0.4630    0.5610 C   0  0  0  0  0  0  0  0  0  0  0  0
    1.7572   -1.0988    4.0360 O   0  0  0  0  0  0  0  0  0  0  0  0
    2.8488   -1.7225    4.7105 C   0  0  0  0  0  0  0  0  0  0  0  0
    0.2005   -0.0341   -2.4883 H   0  0  0  0  0  0  0  0  0  0  0  0
    1.7646    0.4376   -3.1841 H   0  0  0  0  0  0  0  0  0  0  0  0
    1.2502    1.0540   -1.6365 H   0  0  0  0  0  0  0  0  0  0  0  0
    3.7661   -2.0813    0.0940 H   0  0  0  0  0  0  0  0  0  0  0  0
    3.6886   -2.1157    2.5579 H   0  0  0  0  0  0  0  0  0  0  0  0
   -0.0793   -0.0363    2.4742 H   0  0  0  0  0  0  0  0  0  0  0  0
   -0.0055    0.0036    0.0092 H   0  0  0  0  0  0  0  0  0  0  0  0
    2.6809   -1.6643    5.7850 H   0  0  0  0  0  0  0  0  0  0  0  0
    3.7718   -1.2120    4.4384 H   0  0  0  0  0  0  0  0  0  0  0  0
    2.8960   -2.7650    4.3989 H   0  0  0  0  0  0  0  0  0  0  0  0
  1  2  1  0
  2  3  2  0
  2  4  1  0
  4  9  2  0
  4  5  1  0
  5  6  2  0
  6  7  1  0
  7  8  2  0
  8  9  1  0
  7 10  1  0
 10 11  1  0
  1 12  1  0
  1 13  1  0
  1 14  1  0
  5 15  1  0
  6 16  1  0
  8 17  1  0
  9 18  1  0
 11 19  1  0
 11 20  1  0
 11 21  1  0
M  END
>  <_TriposChargeType>  (410) 
USER_CHARGES

>  <solvdG>  (410) 
-4.4

>  <fdG>  (410) 
-6.58

>  <fname>  (410) 
mobley_632905

>  <cname>  (410) 
 1-(4-methoxyphenyl)ethanone

>  <dataset>  (410) 
FreeSolv

$$$$
(1R)-2,2,2-trichloro-1-dimethoxyphosphoryl-ethanol
     RDKit          3D

 20 19  0  0  0  0  0  0  0  0999 V2000
    1.1649   -0.4851    1.9520 C   0  0  0  0  0  0  0  0  0  0  0  0
    1.3842   -0.5003    0.5522 O   0  0  0  0  0  0  0  0  0  0  0  0
    0.4016    0.2898   -0.4640 P   0  0  0  0  0  5  0  0  0  0  0  0
    1.0184    0.5667   -1.8054 O   0  0  0  0  0  0  0  0  0  0  0  0
   -1.1258   -0.6526   -0.5268 C   0  0  2  0  0  0  0  0  0  0  0  0
   -1.5425   -0.6952    0.4850 H   0  0  0  0  0  0  0  0  0  0  0  0
   -1.0955   -2.0605   -1.1396 C   0  0  0  0  0  0  0  0  0  0  0  0
    0.0255   -3.1288   -0.2453 Cl  0  0  0  0  0  0  0  0  0  0  0  0
   -2.7365   -2.7914   -1.0533 Cl  0  0  0  0  0  0  0  0  0  0  0  0
   -0.5973   -2.0293   -2.8597 Cl  0  0  0  0  0  0  0  0  0  0  0  0
   -2.0063    0.1839   -1.2815 O   0  0  0  0  0  0  0  0  0  0  0  0
   -0.0108    1.6283    0.3545 O   0  0  0  0  0  0  0  0  0  0  0  0
    0.9038    2.7106    0.3870 C   0  0  0  0  0  0  0  0  0  0  0  0
    1.9376   -1.0766    2.4491 H   0  0  0  0  0  0  0  0  0  0  0  0
    0.1771   -0.8983    2.1714 H   0  0  0  0  0  0  0  0  0  0  0  0
    1.2134    0.5466    2.3082 H   0  0  0  0  0  0  0  0  0  0  0  0
   -1.6021    0.3165   -2.1560 H   0  0  0  0  0  0  0  0  0  0  0  0
    0.4791    3.5279    0.9740 H   0  0  0  0  0  0  0  0  0  0  0  0
    1.1071    3.0457   -0.6327 H   0  0  0  0  0  0  0  0  0  0  0  0
    1.8334    2.3746    0.8514 H   0  0  0  0  0  0  0  0  0  0  0  0
  1  2  1  0
  2  3  1  0
  3  4  2  0
  3  5  1  0
  5  6  1  1
  5  7  1  0
  7  8  1  0
  7  9  1  0
  7 10  1  0
  5 11  1  0
  3 12  1  0
 12 13  1  0
  1 14  1  0
  1 15  1  0
  1 16  1  0
 11 17  1  0
 13 18  1  0
 13 19  1  0
 13 20  1  0
M  END
>  <_TriposChargeType>  (411) 
USER_CHARGES

>  <solvdG>  (411) 
-12.74

>  <fdG>  (411) 
-13.42

>  <fname>  (411) 
mobley_6334915

>  <cname>  (411) 
 (1R)-2,2,2-trichloro-1-dimethoxyphosphoryl-ethanol

>  <dataset>  (411) 
FreeSolv

$$$$
N4-tert-butyl-N2-ethyl-6-methylsulfanyl-1,3,5-triazine-2,4-diamine
     RDKit          3D

 35 35  0  0  0  0  0  0  0  0999 V2000
    5.1453   -5.1551    2.0501 C   0  0  0  0  0  0  0  0  0  0  0  0
    4.0577   -4.1758    2.3342 C   0  0  0  0  0  0  0  0  0  0  0  0
    3.4771   -4.4053    3.6359 N   0  0  0  0  0  0  0  0  0  0  0  0
    2.4259   -3.6304    4.1729 C   0  0  0  0  0  0  0  0  0  0  0  0
    1.9606   -2.6308    3.4062 N   0  0  0  0  0  0  0  0  0  0  0  0
    0.9636   -1.9388    3.9806 C   0  0  0  0  0  0  0  0  0  0  0  0
    0.4295   -2.1598    5.1926 N   0  0  0  0  0  0  0  0  0  0  0  0
    0.9937   -3.1897    5.8437 C   0  0  0  0  0  0  0  0  0  0  0  0
    1.9930   -3.9682    5.3983 N   0  0  0  0  0  0  0  0  0  0  0  0
    0.3518   -3.5615    7.4627 S   0  0  0  0  0  0  0  0  0  0  0  0
    0.6914   -1.9924    8.2908 C   0  0  0  0  0  0  0  0  0  0  0  0
    0.4313   -0.8895    3.2486 N   0  0  0  0  0  0  0  0  0  0  0  0
    0.8921   -0.5159    1.9237 C   0  0  0  0  0  0  0  0  0  0  0  0
    0.7041   -1.7005    0.9690 C   0  0  0  0  0  0  0  0  0  0  0  0
    0.0763    0.6833    1.4294 C   0  0  0  0  0  0  0  0  0  0  0  0
    2.3771   -0.1411    1.9908 C   0  0  0  0  0  0  0  0  0  0  0  0
    5.5829   -4.9773    1.0617 H   0  0  0  0  0  0  0  0  0  0  0  0
    5.9325   -5.0953    2.8095 H   0  0  0  0  0  0  0  0  0  0  0  0
    4.7400   -6.1740    2.0618 H   0  0  0  0  0  0  0  0  0  0  0  0
    3.2587   -4.2642    1.5919 H   0  0  0  0  0  0  0  0  0  0  0  0
    4.4431   -3.1521    2.3169 H   0  0  0  0  0  0  0  0  0  0  0  0
    3.8447   -5.1670    4.1951 H   0  0  0  0  0  0  0  0  0  0  0  0
    0.3523   -2.0409    9.3276 H   0  0  0  0  0  0  0  0  0  0  0  0
    0.1650   -1.1840    7.7792 H   0  0  0  0  0  0  0  0  0  0  0  0
    1.7643   -1.7905    8.2727 H   0  0  0  0  0  0  0  0  0  0  0  0
   -0.3220   -0.3509    3.6616 H   0  0  0  0  0  0  0  0  0  0  0  0
    1.0432   -1.4513   -0.0432 H   0  0  0  0  0  0  0  0  0  0  0  0
    1.2674   -2.5777    1.3061 H   0  0  0  0  0  0  0  0  0  0  0  0
   -0.3521   -1.9851    0.8959 H   0  0  0  0  0  0  0  0  0  0  0  0
    0.3976    0.9944    0.4285 H   0  0  0  0  0  0  0  0  0  0  0  0
    0.2016    1.5471    2.0926 H   0  0  0  0  0  0  0  0  0  0  0  0
   -0.9924    0.4466    1.3821 H   0  0  0  0  0  0  0  0  0  0  0  0
    2.7568    0.1468    1.0035 H   0  0  0  0  0  0  0  0  0  0  0  0
    2.5464    0.6975    2.6753 H   0  0  0  0  0  0  0  0  0  0  0  0
    2.9836   -0.9860    2.3372 H   0  0  0  0  0  0  0  0  0  0  0  0
  1  2  1  0
  2  3  1  0
  3  4  1  0
  4  9  2  0
  4  5  1  0
  5  6  2  0
  6  7  1  0
  7  8  2  0
  8  9  1  0
  8 10  1  0
 10 11  1  0
  6 12  1  0
 12 13  1  0
 13 14  1  0
 13 15  1  0
 13 16  1  0
  1 17  1  0
  1 18  1  0
  1 19  1  0
  2 20  1  0
  2 21  1  0
  3 22  1  0
 11 23  1  0
 11 24  1  0
 11 25  1  0
 12 26  1  0
 14 27  1  0
 14 28  1  0
 14 29  1  0
 15 30  1  0
 15 31  1  0
 15 32  1  0
 16 33  1  0
 16 34  1  0
 16 35  1  0
M  END
>  <_TriposChargeType>  (412) 
USER_CHARGES

>  <solvdG>  (412) 
-6.68

>  <fdG>  (412) 
-9.27

>  <fname>  (412) 
mobley_6338073

>  <cname>  (412) 
 terbutryn

>  <dataset>  (412) 
FreeSolv

$$$$
1-(3-pyridyl)ethanone
     RDKit          3D

 16 16  0  0  0  0  0  0  0  0999 V2000
    3.4283   -1.3162    4.5412 C   0  0  0  0  0  0  0  0  0  0  0  0
    2.8572   -0.2746    3.6316 C   0  0  0  0  0  0  0  0  0  0  0  0
    3.4282    0.8084    3.5565 O   0  0  0  0  0  0  0  0  0  0  0  0
    1.6520   -0.6227    2.8997 C   0  0  0  0  0  0  0  0  0  0  0  0
    1.3879   -0.0684    1.6522 C   0  0  0  0  0  0  0  0  0  0  0  0
    0.2265   -0.4197    0.9733 C   0  0  0  0  0  0  0  0  0  0  0  0
   -0.6317   -1.3224    1.5803 C   0  0  0  0  0  0  0  0  0  0  0  0
   -0.4092   -1.8816    2.7908 N   0  0  0  0  0  0  0  0  0  0  0  0
    0.7299   -1.5161    3.4206 C   0  0  0  0  0  0  0  0  0  0  0  0
    3.0362   -1.2802    5.5700 H   0  0  0  0  0  0  0  0  0  0  0  0
    4.5269   -1.2829    4.6053 H   0  0  0  0  0  0  0  0  0  0  0  0
    3.2024   -2.3455    4.2102 H   0  0  0  0  0  0  0  0  0  0  0  0
    2.0802    0.6368    1.2001 H   0  0  0  0  0  0  0  0  0  0  0  0
   -0.0005   -0.0000    0.0000 H   0  0  0  0  0  0  0  0  0  0  0  0
   -1.5507   -1.6291    1.0919 H   0  0  0  0  0  0  0  0  0  0  0  0
    0.8808   -1.9808    4.3904 H   0  0  0  0  0  0  0  0  0  0  0  0
  1  2  1  0
  2  3  2  0
  2  4  1  0
  4  9  2  0
  4  5  1  0
  5  6  2  0
  6  7  1  0
  7  8  2  0
  8  9  1  0
  1 10  1  0
  1 11  1  0
  1 12  1  0
  5 13  1  0
  6 14  1  0
  7 15  1  0
  9 16  1  0
M  END
>  <_TriposChargeType>  (413) 
USER_CHARGES

>  <solvdG>  (413) 
-8.26

>  <fdG>  (413) 
-7.84

>  <fname>  (413) 
mobley_6353617

>  <cname>  (413) 
 1-(3-pyridyl)ethanone

>  <dataset>  (413) 
FreeSolv

$$$$
1,2-bis(trifluoromethyl)benzene
     RDKit          3D

 18 18  0  0  0  0  0  0  0  0999 V2000
    1.8851   -1.0363   -0.1124 C   0  0  0  0  0  0  0  0  0  0  0  0
    2.9210   -1.6309    0.6081 C   0  0  0  0  0  0  0  0  0  0  0  0
    2.8783   -1.6520    2.0022 C   0  0  0  0  0  0  0  0  0  0  0  0
    1.7997   -1.0786    2.6757 C   0  0  0  0  0  0  0  0  0  0  0  0
    0.7638   -0.4841    1.9551 C   0  0  0  0  0  0  0  0  0  0  0  0
    0.8066   -0.4630    0.5610 C   0  0  0  0  0  0  0  0  0  0  0  0
   -0.4009    0.1365    2.6541 C   0  0  0  0  0  0  0  0  0  0  0  0
   -0.3281    0.0532    4.0148 F   0  0  0  0  0  0  0  0  0  0  0  0
   -0.5525    1.4661    2.3847 F   0  0  0  0  0  0  0  0  0  0  0  0
   -1.5865   -0.4456    2.3129 F   0  0  0  0  0  0  0  0  0  0  0  0
    1.7761   -1.1133    4.1685 C   0  0  0  0  0  0  0  0  0  0  0  0
    2.8633   -1.7304    4.7171 F   0  0  0  0  0  0  0  0  0  0  0  0
    1.7407    0.1252    4.7416 F   0  0  0  0  0  0  0  0  0  0  0  0
    0.6901   -1.7769    4.6593 F   0  0  0  0  0  0  0  0  0  0  0  0
    1.9184   -1.0206   -1.1979 H   0  0  0  0  0  0  0  0  0  0  0  0
    3.7604   -2.0780    0.0837 H   0  0  0  0  0  0  0  0  0  0  0  0
    3.6901   -2.1181    2.5545 H   0  0  0  0  0  0  0  0  0  0  0  0
    0.0045   -0.0023   -0.0096 H   0  0  0  0  0  0  0  0  0  0  0  0
  1  6  2  0
  1  2  1  0
  2  3  2  0
  3  4  1  0
  4  5  2  0
  5  6  1  0
  5  7  1  0
  7  8  1  0
  7  9  1  0
  7 10  1  0
  4 11  1  0
 11 12  1  0
 11 13  1  0
 11 14  1  0
  1 15  1  0
  2 16  1  0
  3 17  1  0
  6 18  1  0
M  END
>  <_TriposChargeType>  (414) 
USER_CHARGES

>  <solvdG>  (414) 
1.07

>  <fdG>  (414) 
-1.44

>  <fname>  (414) 
mobley_6358463

>  <cname>  (414) 
 1,2-bis(trifluoromethyl)benzene

>  <dataset>  (414) 
FreeSolv

$$$$
carbon tetrachloride
     RDKit          3D

  5  4  0  0  0  0  0  0  0  0999 V2000
   -0.0003   -0.0003    0.0001 C   0  0  0  0  0  0  0  0  0  0  0  0
    1.6167    0.7005    0.2651 Cl  0  0  0  0  0  0  0  0  0  0  0  0
    0.1223   -1.7773   -0.0365 Cl  0  0  0  0  0  0  0  0  0  0  0  0
   -0.6529    0.5829   -1.5520 Cl  0  0  0  0  0  0  0  0  0  0  0  0
   -1.0857    0.4943    1.3234 Cl  0  0  0  0  0  0  0  0  0  0  0  0
  1  2  1  0
  1  3  1  0
  1  4  1  0
  1  5  1  0
M  END
>  <_TriposChargeType>  (415) 
USER_CHARGES

>  <solvdG>  (415) 
0.08

>  <fdG>  (415) 
1.19

>  <fname>  (415) 
mobley_6359135

>  <cname>  (415) 
 carbon tetrachloride

>  <dataset>  (415) 
FreeSolv

$$$$
1,4-dichloro-2-phenyl-benzene
     RDKit          3D

 22 23  0  0  0  0  0  0  0  0999 V2000
    1.8851   -1.0363   -0.1124 C   0  0  0  0  0  0  0  0  0  0  0  0
    2.9210   -1.6309    0.6081 C   0  0  0  0  0  0  0  0  0  0  0  0
    2.8783   -1.6520    2.0022 C   0  0  0  0  0  0  0  0  0  0  0  0
    1.7997   -1.0786    2.6757 C   0  0  0  0  0  0  0  0  0  0  0  0
    0.7638   -0.4841    1.9551 C   0  0  0  0  0  0  0  0  0  0  0  0
    0.8066   -0.4630    0.5610 C   0  0  0  0  0  0  0  0  0  0  0  0
    1.7549   -1.1005    4.1216 C   0  0  0  0  0  0  0  0  0  0  0  0
    1.1408   -2.1865    4.7455 C   0  0  0  0  0  0  0  0  0  0  0  0
    1.0764   -2.2462    6.1376 C   0  0  0  0  0  0  0  0  0  0  0  0
    1.6261   -1.2198    6.9058 C   0  0  0  0  0  0  0  0  0  0  0  0
    2.2402   -0.1338    6.2819 C   0  0  0  0  0  0  0  0  0  0  0  0
    2.3045   -0.0742    4.8898 C   0  0  0  0  0  0  0  0  0  0  0  0
    3.0776    1.2956    4.1704 Cl  0  0  0  0  0  0  0  0  0  0  0  0
    0.3190   -3.5856    6.9086 Cl  0  0  0  0  0  0  0  0  0  0  0  0
    1.9174   -1.0212   -1.1979 H   0  0  0  0  0  0  0  0  0  0  0  0
    3.7605   -2.0787    0.0844 H   0  0  0  0  0  0  0  0  0  0  0  0
    3.6927   -2.1196    2.5504 H   0  0  0  0  0  0  0  0  0  0  0  0
   -0.0840   -0.0332    2.4655 H   0  0  0  0  0  0  0  0  0  0  0  0
   -0.0009   -0.0015    0.0001 H   0  0  0  0  0  0  0  0  0  0  0  0
    0.7108   -2.9892    4.1491 H   0  0  0  0  0  0  0  0  0  0  0  0
    1.5833   -1.2530    7.9915 H   0  0  0  0  0  0  0  0  0  0  0  0
    2.6634    0.6573    6.8957 H   0  0  0  0  0  0  0  0  0  0  0  0
  1  6  2  0
  1  2  1  0
  2  3  2  0
  3  4  1  0
  4  5  2  0
  5  6  1  0
  4  7  1  0
  7 12  1  0
  7  8  2  0
  8  9  1  0
  9 10  2  0
 10 11  1  0
 11 12  2  0
 12 13  1  0
  9 14  1  0
  1 15  1  0
  2 16  1  0
  3 17  1  0
  5 18  1  0
  6 19  1  0
  8 20  1  0
 10 21  1  0
 11 22  1  0
M  END
>  <_TriposChargeType>  (416) 
USER_CHARGES

>  <solvdG>  (416) 
-2.46

>  <fdG>  (416) 
-1.9

>  <fname>  (416) 
mobley_6359156

>  <cname>  (416) 
 1,4-dichloro-2-phenyl-benzene

>  <dataset>  (416) 
FreeSolv

$$$$
1-methylpiperidine
     RDKit          3D

 20 20  0  0  0  0  0  0  0  0999 V2000
   -2.2769    2.8571    2.7077 C   0  0  0  0  0  0  0  0  0  0  0  0
   -1.0464    2.5099    1.9972 N   0  0  0  0  0  0  0  0  0  0  0  0
   -0.5091    1.2349    2.4928 C   0  0  0  0  0  0  0  0  0  0  0  0
    0.8047    0.8812    1.7942 C   0  0  0  0  0  0  0  0  0  0  0  0
    0.6363    0.8488    0.2794 C   0  0  0  0  0  0  0  0  0  0  0  0
    0.0019    2.1441   -0.2139 C   0  0  0  0  0  0  0  0  0  0  0  0
   -1.2866    2.4578    0.5483 C   0  0  0  0  0  0  0  0  0  0  0  0
   -2.0914    2.8941    3.7843 H   0  0  0  0  0  0  0  0  0  0  0  0
   -3.0511    2.1109    2.5095 H   0  0  0  0  0  0  0  0  0  0  0  0
   -2.6399    3.8347    2.3793 H   0  0  0  0  0  0  0  0  0  0  0  0
   -0.3138    1.3082    3.5696 H   0  0  0  0  0  0  0  0  0  0  0  0
   -1.2334    0.4225    2.3472 H   0  0  0  0  0  0  0  0  0  0  0  0
    1.5728    1.6181    2.0615 H   0  0  0  0  0  0  0  0  0  0  0  0
    1.1608   -0.0934    2.1472 H   0  0  0  0  0  0  0  0  0  0  0  0
    1.6076    0.6974   -0.2042 H   0  0  0  0  0  0  0  0  0  0  0  0
    0.0002   -0.0000   -0.0001 H   0  0  0  0  0  0  0  0  0  0  0  0
    0.7129    2.9709   -0.0892 H   0  0  0  0  0  0  0  0  0  0  0  0
   -0.2119    2.0660   -1.2860 H   0  0  0  0  0  0  0  0  0  0  0  0
   -1.6617    3.4277    0.1994 H   0  0  0  0  0  0  0  0  0  0  0  0
   -2.0498    1.7064    0.3052 H   0  0  0  0  0  0  0  0  0  0  0  0
  1  2  1  0
  2  7  1  0
  2  3  1  0
  3  4  1  0
  4  5  1  0
  5  6  1  0
  6  7  1  0
  1  8  1  0
  1  9  1  0
  1 10  1  0
  3 11  1  0
  3 12  1  0
  4 13  1  0
  4 14  1  0
  5 15  1  0
  5 16  1  0
  6 17  1  0
  6 18  1  0
  7 19  1  0
  7 20  1  0
M  END
>  <_TriposChargeType>  (417) 
USER_CHARGES

>  <solvdG>  (417) 
-3.88

>  <fdG>  (417) 
-3.47

>  <fname>  (417) 
mobley_63712

>  <cname>  (417) 
 1-methylpiperidine

>  <dataset>  (417) 
FreeSolv

$$$$
anthracene
     RDKit          3D

 24 26  0  0  0  0  0  0  0  0999 V2000
    1.1582    1.7944   -0.2577 C   0  0  0  0  0  0  0  0  0  0  0  0
   -0.0270    1.0691   -0.1893 C   0  0  0  0  0  0  0  0  0  0  0  0
   -1.2510    1.7151   -0.3642 C   0  0  0  0  0  0  0  0  0  0  0  0
   -1.3047    3.0972   -0.6099 C   0  0  0  0  0  0  0  0  0  0  0  0
   -2.5292    3.7624   -0.7882 C   0  0  0  0  0  0  0  0  0  0  0  0
   -2.5821    5.1446   -1.0340 C   0  0  0  0  0  0  0  0  0  0  0  0
   -3.8061    5.8105   -1.2124 C   0  0  0  0  0  0  0  0  0  0  0  0
   -3.8419    7.1837   -1.4556 C   0  0  0  0  0  0  0  0  0  0  0  0
   -2.6567    7.9090   -1.5237 C   0  0  0  0  0  0  0  0  0  0  0  0
   -1.4327    7.2630   -1.3489 C   0  0  0  0  0  0  0  0  0  0  0  0
   -1.3790    5.8808   -1.1032 C   0  0  0  0  0  0  0  0  0  0  0  0
   -0.1545    5.2157   -0.9250 C   0  0  0  0  0  0  0  0  0  0  0  0
   -0.1017    3.8335   -0.6793 C   0  0  0  0  0  0  0  0  0  0  0  0
    1.1224    3.1676   -0.5010 C   0  0  0  0  0  0  0  0  0  0  0  0
    2.1117    1.2921   -0.1217 H   0  0  0  0  0  0  0  0  0  0  0  0
    0.0002    0.0001   -0.0001 H   0  0  0  0  0  0  0  0  0  0  0  0
   -2.1654    1.1283   -0.3069 H   0  0  0  0  0  0  0  0  0  0  0  0
   -3.4580    3.1941   -0.7348 H   0  0  0  0  0  0  0  0  0  0  0  0
   -4.7452    5.2632   -1.1629 H   0  0  0  0  0  0  0  0  0  0  0  0
   -4.7950    7.6863   -1.5917 H   0  0  0  0  0  0  0  0  0  0  0  0
   -2.6833    8.9782   -1.7129 H   0  0  0  0  0  0  0  0  0  0  0  0
   -0.5183    7.8499   -1.4065 H   0  0  0  0  0  0  0  0  0  0  0  0
    0.7741    5.7841   -0.9784 H   0  0  0  0  0  0  0  0  0  0  0  0
    2.0617    3.7147   -0.5502 H   0  0  0  0  0  0  0  0  0  0  0  0
  1 14  2  0
  1  2  1  0
  2  3  2  0
  3  4  1  0
  4 13  2  0
  4  5  1  0
  5  6  2  0
  6 11  1  0
  6  7  1  0
  7  8  2  0
  8  9  1  0
  9 10  2  0
 10 11  1  0
 11 12  2  0
 12 13  1  0
 13 14  1  0
  1 15  1  0
  2 16  1  0
  3 17  1  0
  5 18  1  0
  7 19  1  0
  8 20  1  0
  9 21  1  0
 10 22  1  0
 12 23  1  0
 14 24  1  0
M  END
>  <_TriposChargeType>  (418) 
USER_CHARGES

>  <solvdG>  (418) 
-3.95

>  <fdG>  (418) 
-5.19

>  <fname>  (418) 
mobley_637522

>  <cname>  (418) 
 anthracene

>  <dataset>  (418) 
FreeSolv

$$$$
propylcyclopentane
     RDKit          3D

 24 24  0  0  0  0  0  0  0  0999 V2000
    2.6344   -1.6917   -5.5628 C   0  0  0  0  0  0  0  0  0  0  0  0
    2.0878   -1.4964   -4.1576 C   0  0  0  0  0  0  0  0  0  0  0  0
    0.5910   -1.1933   -4.1767 C   0  0  0  0  0  0  0  0  0  0  0  0
    0.0448   -0.9981   -2.7731 C   0  0  0  0  0  0  0  0  0  0  0  0
    0.6372    0.2135   -2.0602 C   0  0  0  0  0  0  0  0  0  0  0  0
   -0.3396    0.4881   -0.9209 C   0  0  0  0  0  0  0  0  0  0  0  0
   -1.6799   -0.1059   -1.3575 C   0  0  0  0  0  0  0  0  0  0  0  0
   -1.4494   -0.6928   -2.7462 C   0  0  0  0  0  0  0  0  0  0  0  0
    3.7071   -1.9083   -5.5398 H   0  0  0  0  0  0  0  0  0  0  0  0
    2.1272   -2.5189   -6.0693 H   0  0  0  0  0  0  0  0  0  0  0  0
    2.4834   -0.7854   -6.1577 H   0  0  0  0  0  0  0  0  0  0  0  0
    2.2773   -2.4014   -3.5688 H   0  0  0  0  0  0  0  0  0  0  0  0
    2.6281   -0.6751   -3.6724 H   0  0  0  0  0  0  0  0  0  0  0  0
    0.4015   -0.2879   -4.7654 H   0  0  0  0  0  0  0  0  0  0  0  0
    0.0507   -2.0145   -4.6620 H   0  0  0  0  0  0  0  0  0  0  0  0
    0.2422   -1.9014   -2.1809 H   0  0  0  0  0  0  0  0  0  0  0  0
    1.6518    0.0270   -1.6943 H   0  0  0  0  0  0  0  0  0  0  0  0
    0.6757    1.0813   -2.7303 H   0  0  0  0  0  0  0  0  0  0  0  0
    0.0009    0.0008    0.0000 H   0  0  0  0  0  0  0  0  0  0  0  0
   -0.4171    1.5603   -0.7140 H   0  0  0  0  0  0  0  0  0  0  0  0
   -1.9815   -0.8931   -0.6567 H   0  0  0  0  0  0  0  0  0  0  0  0
   -2.4750    0.6463   -1.3687 H   0  0  0  0  0  0  0  0  0  0  0  0
   -2.0610   -1.5832   -2.9214 H   0  0  0  0  0  0  0  0  0  0  0  0
   -1.7112    0.0502   -3.5096 H   0  0  0  0  0  0  0  0  0  0  0  0
  1  2  1  0
  2  3  1  0
  3  4  1  0
  4  8  1  0
  4  5  1  0
  5  6  1  0
  6  7  1  0
  7  8  1  0
  1  9  1  0
  1 10  1  0
  1 11  1  0
  2 12  1  0
  2 13  1  0
  3 14  1  0
  3 15  1  0
  4 16  1  0
  5 17  1  0
  5 18  1  0
  6 19  1  0
  6 20  1  0
  7 21  1  0
  7 22  1  0
  8 23  1  0
  8 24  1  0
M  END
>  <_TriposChargeType>  (419) 
USER_CHARGES

>  <solvdG>  (419) 
2.13

>  <fdG>  (419) 
2.1

>  <fname>  (419) 
mobley_6416775

>  <cname>  (419) 
 propylcyclopentane

>  <dataset>  (419) 
FreeSolv

$$$$
propylbenzene
     RDKit          3D

 21 21  0  0  0  0  0  0  0  0999 V2000
    2.6809    0.2613   -3.6438 C   0  0  0  0  0  0  0  0  0  0  0  0
    2.6352    0.2404   -2.1242 C   0  0  0  0  0  0  0  0  0  0  0  0
    1.9309   -1.0140   -1.6029 C   0  0  0  0  0  0  0  0  0  0  0  0
    1.8851   -1.0363   -0.1124 C   0  0  0  0  0  0  0  0  0  0  0  0
    2.9210   -1.6309    0.6081 C   0  0  0  0  0  0  0  0  0  0  0  0
    2.8783   -1.6520    2.0022 C   0  0  0  0  0  0  0  0  0  0  0  0
    1.7997   -1.0786    2.6757 C   0  0  0  0  0  0  0  0  0  0  0  0
    0.7638   -0.4841    1.9551 C   0  0  0  0  0  0  0  0  0  0  0  0
    0.8066   -0.4630    0.5610 C   0  0  0  0  0  0  0  0  0  0  0  0
    3.1861    1.1614   -4.0086 H   0  0  0  0  0  0  0  0  0  0  0  0
    3.2123   -0.6133   -4.0323 H   0  0  0  0  0  0  0  0  0  0  0  0
    1.6661    0.2520   -4.0537 H   0  0  0  0  0  0  0  0  0  0  0  0
    2.1176    1.1395   -1.7683 H   0  0  0  0  0  0  0  0  0  0  0  0
    3.6590    0.2888   -1.7337 H   0  0  0  0  0  0  0  0  0  0  0  0
    2.4467   -1.9103   -1.9713 H   0  0  0  0  0  0  0  0  0  0  0  0
    0.9110   -1.0623   -2.0061 H   0  0  0  0  0  0  0  0  0  0  0  0
    3.7649   -2.0803    0.0915 H   0  0  0  0  0  0  0  0  0  0  0  0
    3.6850   -2.1148    2.5632 H   0  0  0  0  0  0  0  0  0  0  0  0
    1.7662   -1.0949    3.7611 H   0  0  0  0  0  0  0  0  0  0  0  0
   -0.0762   -0.0382    2.4794 H   0  0  0  0  0  0  0  0  0  0  0  0
   -0.0050    0.0028    0.0083 H   0  0  0  0  0  0  0  0  0  0  0  0
  1  2  1  0
  2  3  1  0
  3  4  1  0
  4  9  2  0
  4  5  1  0
  5  6  2  0
  6  7  1  0
  7  8  2  0
  8  9  1  0
  1 10  1  0
  1 11  1  0
  1 12  1  0
  2 13  1  0
  2 14  1  0
  3 15  1  0
  3 16  1  0
  5 17  1  0
  6 18  1  0
  7 19  1  0
  8 20  1  0
  9 21  1  0
M  END
>  <_TriposChargeType>  (420) 
USER_CHARGES

>  <solvdG>  (420) 
-0.53

>  <fdG>  (420) 
-0.51

>  <fname>  (420) 
mobley_6430250

>  <cname>  (420) 
 propylbenzene

>  <dataset>  (420) 
FreeSolv

$$$$
isobutyl 2-methylpropanoate
     RDKit          3D

 26 25  0  0  0  0  0  0  0  0999 V2000
    1.9646   -1.5716   -5.6312 C   0  0  0  0  0  0  0  0  0  0  0  0
    3.1733   -1.1109   -4.8138 C   0  0  0  0  0  0  0  0  0  0  0  0
    4.1591   -0.3564   -5.7031 C   0  0  0  0  0  0  0  0  0  0  0  0
    2.7463   -0.2387   -3.6300 C   0  0  0  0  0  0  0  0  0  0  0  0
    1.8767   -0.9792   -2.7675 O   0  0  0  0  0  0  0  0  0  0  0  0
    1.4247   -0.3057   -1.6679 C   0  0  0  0  0  0  0  0  0  0  0  0
    1.7001    0.8503   -1.3743 O   0  0  0  0  0  0  0  0  0  0  0  0
    0.5295   -1.2187   -0.8487 C   0  0  0  0  0  0  0  0  0  0  0  0
    1.3668   -1.9782    0.1736 C   0  0  0  0  0  0  0  0  0  0  0  0
   -0.5768   -0.4202   -0.1641 C   0  0  0  0  0  0  0  0  0  0  0  0
    1.2532   -2.1137   -4.9989 H   0  0  0  0  0  0  0  0  0  0  0  0
    2.2677   -2.2376   -6.4464 H   0  0  0  0  0  0  0  0  0  0  0  0
    1.4346   -0.7193   -6.0688 H   0  0  0  0  0  0  0  0  0  0  0  0
    3.6676   -2.0101   -4.4244 H   0  0  0  0  0  0  0  0  0  0  0  0
    5.0278   -0.0229   -5.1258 H   0  0  0  0  0  0  0  0  0  0  0  0
    3.6883    0.5306   -6.1399 H   0  0  0  0  0  0  0  0  0  0  0  0
    4.5195   -0.9875   -6.5228 H   0  0  0  0  0  0  0  0  0  0  0  0
    3.6192    0.0707   -3.0457 H   0  0  0  0  0  0  0  0  0  0  0  0
    2.2181    0.6585   -3.9703 H   0  0  0  0  0  0  0  0  0  0  0  0
    0.0506   -1.9270   -1.5361 H   0  0  0  0  0  0  0  0  0  0  0  0
    0.7398   -2.6435    0.7760 H   0  0  0  0  0  0  0  0  0  0  0  0
    1.8862   -1.2908    0.8505 H   0  0  0  0  0  0  0  0  0  0  0  0
    2.1295   -2.5899   -0.3202 H   0  0  0  0  0  0  0  0  0  0  0  0
   -1.2225   -1.0782    0.4267 H   0  0  0  0  0  0  0  0  0  0  0  0
   -1.2015    0.0923   -0.9039 H   0  0  0  0  0  0  0  0  0  0  0  0
   -0.1652    0.3425    0.5063 H   0  0  0  0  0  0  0  0  0  0  0  0
  1  2  1  0
  2  3  1  0
  2  4  1  0
  4  5  1  0
  5  6  1  0
  6  7  2  0
  6  8  1  0
  8  9  1  0
  8 10  1  0
  1 11  1  0
  1 12  1  0
  1 13  1  0
  2 14  1  0
  3 15  1  0
  3 16  1  0
  3 17  1  0
  4 18  1  0
  4 19  1  0
  8 20  1  0
  9 21  1  0
  9 22  1  0
  9 23  1  0
 10 24  1  0
 10 25  1  0
 10 26  1  0
M  END
>  <_TriposChargeType>  (421) 
USER_CHARGES

>  <solvdG>  (421) 
-1.69

>  <fdG>  (421) 
-2.58

>  <fname>  (421) 
mobley_6456034

>  <cname>  (421) 
 isobutyl 2-methylpropanoate

>  <dataset>  (421) 
FreeSolv

$$$$
pyrrolidine
     RDKit          3D

 14 14  0  0  0  0  0  0  0  0999 V2000
    0.2644    0.4683    1.1553 C   0  0  0  0  0  0  0  0  0  0  0  0
    0.0092    1.2687   -0.1164 C   0  0  0  0  0  0  0  0  0  0  0  0
   -0.4197    0.2423   -1.1506 C   0  0  0  0  0  0  0  0  0  0  0  0
    0.1683   -1.0039   -0.6679 N   0  0  0  0  0  0  0  0  0  0  0  0
   -0.0222   -0.9754    0.7795 C   0  0  0  0  0  0  0  0  0  0  0  0
   -0.3728    0.8026    1.9804 H   0  0  0  0  0  0  0  0  0  0  0  0
    1.3085    0.5901    1.4667 H   0  0  0  0  0  0  0  0  0  0  0  0
   -0.7591    2.0339    0.0328 H   0  0  0  0  0  0  0  0  0  0  0  0
    0.9311    1.7737   -0.4280 H   0  0  0  0  0  0  0  0  0  0  0  0
   -1.5128    0.1609   -1.1806 H   0  0  0  0  0  0  0  0  0  0  0  0
   -0.0649    0.4963   -2.1533 H   0  0  0  0  0  0  0  0  0  0  0  0
   -0.3006   -1.8091   -1.0788 H   0  0  0  0  0  0  0  0  0  0  0  0
   -1.0559   -1.2397    1.0324 H   0  0  0  0  0  0  0  0  0  0  0  0
    0.6468   -1.6738    1.2904 H   0  0  0  0  0  0  0  0  0  0  0  0
  1  5  1  0
  1  2  1  0
  2  3  1  0
  3  4  1  0
  4  5  1  0
  1  6  1  0
  1  7  1  0
  2  8  1  0
  2  9  1  0
  3 10  1  0
  3 11  1  0
  4 12  1  0
  5 13  1  0
  5 14  1  0
M  END
>  <_TriposChargeType>  (422) 
USER_CHARGES

>  <solvdG>  (422) 
-5.48

>  <fdG>  (422) 
-4.28

>  <fname>  (422) 
mobley_646007

>  <cname>  (422) 
 pyrrolidine

>  <dataset>  (422) 
FreeSolv

$$$$
chloroethylene
     RDKit          3D

  6  5  0  0  0  0  0  0  0  0999 V2000
    0.6579    0.2535   -0.2291 C   0  0  0  0  0  0  0  0  0  0  0  0
   -0.4830   -0.3390    0.1212 C   0  0  0  0  0  0  0  0  0  0  0  0
   -0.8307   -1.9798   -0.2212 Cl  0  0  0  0  0  0  0  0  0  0  0  0
    0.8550    1.2953   -0.0006 H   0  0  0  0  0  0  0  0  0  0  0  0
    1.4236   -0.3036   -0.7578 H   0  0  0  0  0  0  0  0  0  0  0  0
   -1.2837    0.1613    0.6486 H   0  0  0  0  0  0  0  0  0  0  0  0
  1  2  2  3
  2  3  1  0
  1  4  1  0
  1  5  1  0
  2  6  1  0
M  END
>  <_TriposChargeType>  (423) 
USER_CHARGES

>  <solvdG>  (423) 
-0.59

>  <fdG>  (423) 
1.16

>  <fname>  (423) 
mobley_6474572

>  <cname>  (423) 
 chloroethylene

>  <dataset>  (423) 
FreeSolv

$$$$
(E)-but-2-enal
     RDKit          3D

 11 10  0  0  0  0  0  0  0  0999 V2000
   -1.8802    0.8865   -0.7247 C   0  0  0  0  0  0  0  0  0  0  0  0
   -0.9450   -0.2508   -0.4750 C   0  0  0  0  0  0  0  0  0  0  0  0
   -1.2229   -1.5179   -0.8034 C   0  0  0  0  0  0  0  0  0  0  0  0
   -0.2303   -2.5702   -0.5137 C   0  0  0  0  0  0  0  0  0  0  0  0
   -0.4322   -3.7460   -0.7926 O   0  0  0  0  0  0  0  0  0  0  0  0
   -2.5388    1.0237    0.1385 H   0  0  0  0  0  0  0  0  0  0  0  0
   -2.5006    0.6729   -1.6004 H   0  0  0  0  0  0  0  0  0  0  0  0
   -1.3507    1.8280   -0.9031 H   0  0  0  0  0  0  0  0  0  0  0  0
    0.0000    0.0000    0.0000 H   0  0  0  0  0  0  0  0  0  0  0  0
   -2.1529   -1.8078   -1.2777 H   0  0  0  0  0  0  0  0  0  0  0  0
    0.7048   -2.2411   -0.0304 H   0  0  0  0  0  0  0  0  0  0  0  0
  1  2  1  0
  2  3  2  0
  3  4  1  0
  4  5  2  0
  1  6  1  0
  1  7  1  0
  1  8  1  0
  2  9  1  0
  3 10  1  0
  4 11  1  0
M  END
>  <_TriposChargeType>  (424) 
USER_CHARGES

>  <solvdG>  (424) 
-4.22

>  <fdG>  (424) 
-3.34

>  <fname>  (424) 
mobley_6497672

>  <cname>  (424) 
 but-2-enal

>  <dataset>  (424) 
FreeSolv

$$$$
[(E)-2-chloro-1-(2,4-dichlorophenyl)vinyl] diethyl phosphate
     RDKit          3D

 34 34  0  0  0  0  0  0  0  0999 V2000
    0.9200    3.5298    0.2258 C   0  0  0  0  0  0  0  0  0  0  0  0
    0.1568    2.2635    0.5508 C   0  0  0  0  0  0  0  0  0  0  0  0
    0.6019    1.2243   -0.3035 O   0  0  0  0  0  0  0  0  0  0  0  0
   -0.0696   -0.2420   -0.1493 P   0  0  0  0  0  5  0  0  0  0  0  0
    0.4572   -1.2870   -1.0911 O   0  0  0  0  0  0  0  0  0  0  0  0
    0.1214   -0.5727    1.4254 O   0  0  0  0  0  0  0  0  0  0  0  0
    1.3836   -1.0414    1.8673 C   0  0  0  0  0  0  0  0  0  0  0  0
    1.3277   -1.2815    3.3618 C   0  0  0  0  0  0  0  0  0  0  0  0
   -1.6550    0.0614   -0.2763 O   0  0  0  0  0  0  0  0  0  0  0  0
   -2.6035   -0.9022   -0.2029 C   0  0  0  0  0  0  0  0  0  0  0  0
   -2.3281   -2.2158   -0.0163 C   0  0  0  0  0  0  0  0  0  0  0  0
   -3.5503   -3.4167    0.0729 Cl  0  0  0  0  0  0  0  0  0  0  0  0
   -4.0091   -0.4305   -0.3201 C   0  0  0  0  0  0  0  0  0  0  0  0
   -4.5706   -0.3711   -1.5957 C   0  0  0  0  0  0  0  0  0  0  0  0
   -5.8859    0.0634   -1.7591 C   0  0  0  0  0  0  0  0  0  0  0  0
   -6.6398    0.4385   -0.6470 C   0  0  0  0  0  0  0  0  0  0  0  0
   -6.0782    0.3791    0.6285 C   0  0  0  0  0  0  0  0  0  0  0  0
   -4.7629   -0.0554    0.7919 C   0  0  0  0  0  0  0  0  0  0  0  0
   -4.1161   -0.1113    2.3947 Cl  0  0  0  0  0  0  0  0  0  0  0  0
   -8.2623    0.9751   -0.8499 Cl  0  0  0  0  0  0  0  0  0  0  0  0
    0.5999    4.3543    0.8690 H   0  0  0  0  0  0  0  0  0  0  0  0
    1.9962    3.3764    0.3570 H   0  0  0  0  0  0  0  0  0  0  0  0
    0.7645    3.8165   -0.8196 H   0  0  0  0  0  0  0  0  0  0  0  0
   -0.9161    2.4117    0.3961 H   0  0  0  0  0  0  0  0  0  0  0  0
    0.3315    1.9656    1.5889 H   0  0  0  0  0  0  0  0  0  0  0  0
    1.6218   -1.9708    1.3397 H   0  0  0  0  0  0  0  0  0  0  0  0
    2.1445   -0.2911    1.6288 H   0  0  0  0  0  0  0  0  0  0  0  0
    2.2886   -1.6449    3.7365 H   0  0  0  0  0  0  0  0  0  0  0  0
    1.0681   -0.3586    3.8907 H   0  0  0  0  0  0  0  0  0  0  0  0
    0.5529   -2.0162    3.6050 H   0  0  0  0  0  0  0  0  0  0  0  0
   -1.3411   -2.6481    0.0843 H   0  0  0  0  0  0  0  0  0  0  0  0
   -3.9979   -0.6603   -2.4739 H   0  0  0  0  0  0  0  0  0  0  0  0
   -6.3104    0.1047   -2.7589 H   0  0  0  0  0  0  0  0  0  0  0  0
   -6.6690    0.6703    1.4945 H   0  0  0  0  0  0  0  0  0  0  0  0
  1  2  1  0
  2  3  1  0
  3  4  1  0
  4  5  2  0
  4  6  1  0
  6  7  1  0
  7  8  1  0
  4  9  1  0
  9 10  1  0
 10 11  2  0
 11 12  1  0
 10 13  1  0
 13 18  2  0
 13 14  1  0
 14 15  2  0
 15 16  1  0
 16 17  2  0
 17 18  1  0
 18 19  1  0
 16 20  1  0
  1 21  1  0
  1 22  1  0
  1 23  1  0
  2 24  1  0
  2 25  1  0
  7 26  1  0
  7 27  1  0
  8 28  1  0
  8 29  1  0
  8 30  1  0
 11 31  1  0
 14 32  1  0
 15 33  1  0
 17 34  1  0
M  END
>  <_TriposChargeType>  (425) 
USER_CHARGES

>  <solvdG>  (425) 
-7.07

>  <fdG>  (425) 
-9.03

>  <fname>  (425) 
mobley_6522117

>  <cname>  (425) 
 2-chloro-1-(2,4-dichlorophenyl)ethenyl diethyl phosphate

>  <dataset>  (425) 
FreeSolv

$$$$
1-methylcyclohexene
     RDKit          3D

 19 19  0  0  0  0  0  0  0  0999 V2000
    1.4044    3.7154    1.9912 C   0  0  0  0  0  0  0  0  0  0  0  0
    0.6071    2.4535    1.8421 C   0  0  0  0  0  0  0  0  0  0  0  0
    0.1963    2.0094    0.6416 C   0  0  0  0  0  0  0  0  0  0  0  0
   -0.6330    0.7736    0.4510 C   0  0  0  0  0  0  0  0  0  0  0  0
   -1.2420    0.2490    1.7515 C   0  0  0  0  0  0  0  0  0  0  0  0
   -0.2263    0.2896    2.8870 C   0  0  0  0  0  0  0  0  0  0  0  0
    0.2913    1.7119    3.1175 C   0  0  0  0  0  0  0  0  0  0  0  0
    2.4741    3.4976    1.9317 H   0  0  0  0  0  0  0  0  0  0  0  0
    1.1944    4.1857    2.9559 H   0  0  0  0  0  0  0  0  0  0  0  0
    1.1451    4.4239    1.1996 H   0  0  0  0  0  0  0  0  0  0  0  0
    0.4600    2.5595   -0.2579 H   0  0  0  0  0  0  0  0  0  0  0  0
   -1.4399    0.9835   -0.2604 H   0  0  0  0  0  0  0  0  0  0  0  0
   -0.0004   -0.0001   -0.0002 H   0  0  0  0  0  0  0  0  0  0  0  0
   -2.1137    0.8585    2.0219 H   0  0  0  0  0  0  0  0  0  0  0  0
   -1.6032   -0.7749    1.6035 H   0  0  0  0  0  0  0  0  0  0  0  0
   -0.6768   -0.0926    3.8100 H   0  0  0  0  0  0  0  0  0  0  0  0
    0.6154   -0.3725    2.6460 H   0  0  0  0  0  0  0  0  0  0  0  0
   -0.4595    2.2861    3.6748 H   0  0  0  0  0  0  0  0  0  0  0  0
    1.1865    1.6557    3.7482 H   0  0  0  0  0  0  0  0  0  0  0  0
  1  2  1  0
  2  7  1  0
  2  3  2  0
  3  4  1  0
  4  5  1  0
  5  6  1  0
  6  7  1  0
  1  8  1  0
  1  9  1  0
  1 10  1  0
  3 11  1  0
  4 12  1  0
  4 13  1  0
  5 14  1  0
  5 15  1  0
  6 16  1  0
  6 17  1  0
  7 18  1  0
  7 19  1  0
M  END
>  <_TriposChargeType>  (426) 
USER_CHARGES

>  <solvdG>  (426) 
0.67

>  <fdG>  (426) 
1.34

>  <fname>  (426) 
mobley_6571751

>  <cname>  (426) 
 1-methylcyclohexene

>  <dataset>  (426) 
FreeSolv

$$$$
ethyl pentanoate
     RDKit          3D

 23 22  0  0  0  0  0  0  0  0999 V2000
   -0.5100    0.9085    0.3409 C   0  0  0  0  0  0  0  0  0  0  0  0
   -0.5734    0.9583    1.8590 C   0  0  0  0  0  0  0  0  0  0  0  0
    0.8236    0.9589    2.4780 C   0  0  0  0  0  0  0  0  0  0  0  0
    0.7559    1.0090    4.0034 C   0  0  0  0  0  0  0  0  0  0  0  0
    2.1308    1.0102    4.6318 C   0  0  0  0  0  0  0  0  0  0  0  0
    3.1878    0.9758    4.0169 O   0  0  0  0  0  0  0  0  0  0  0  0
    1.9955    1.0540    5.9906 O   0  0  0  0  0  0  0  0  0  0  0  0
    3.2195    1.0589    6.7322 C   0  0  0  0  0  0  0  0  0  0  0  0
    2.8900    1.1091    8.2051 C   0  0  0  0  0  0  0  0  0  0  0  0
   -1.5145    0.9084   -0.0941 H   0  0  0  0  0  0  0  0  0  0  0  0
    0.0370    1.7691   -0.0570 H   0  0  0  0  0  0  0  0  0  0  0  0
    0.0026   -0.0010    0.0126 H   0  0  0  0  0  0  0  0  0  0  0  0
   -1.1179    1.8586    2.1671 H   0  0  0  0  0  0  0  0  0  0  0  0
   -1.1420    0.0947    2.2233 H   0  0  0  0  0  0  0  0  0  0  0  0
    1.3931    1.8197    2.1053 H   0  0  0  0  0  0  0  0  0  0  0  0
    1.3685    0.0605    2.1617 H   0  0  0  0  0  0  0  0  0  0  0  0
    0.2103    0.1356    4.3781 H   0  0  0  0  0  0  0  0  0  0  0  0
    0.2347    1.9194    4.3202 H   0  0  0  0  0  0  0  0  0  0  0  0
    3.7712    0.1512    6.4856 H   0  0  0  0  0  0  0  0  0  0  0  0
    3.7975    1.9329    6.4306 H   0  0  0  0  0  0  0  0  0  0  0  0
    3.8060    1.1140    8.8024 H   0  0  0  0  0  0  0  0  0  0  0  0
    2.3073    2.0048    8.4439 H   0  0  0  0  0  0  0  0  0  0  0  0
    2.2820    0.2466    8.4979 H   0  0  0  0  0  0  0  0  0  0  0  0
  1  2  1  0
  2  3  1  0
  3  4  1  0
  4  5  1  0
  5  6  2  0
  5  7  1  0
  7  8  1  0
  8  9  1  0
  1 10  1  0
  1 11  1  0
  1 12  1  0
  2 13  1  0
  2 14  1  0
  3 15  1  0
  3 16  1  0
  4 17  1  0
  4 18  1  0
  8 19  1  0
  8 20  1  0
  9 21  1  0
  9 22  1  0
  9 23  1  0
M  END
>  <_TriposChargeType>  (427) 
USER_CHARGES

>  <solvdG>  (427) 
-2.49

>  <fdG>  (427) 
-3.11

>  <fname>  (427) 
mobley_6619554

>  <cname>  (427) 
 ethyl pentanoate

>  <dataset>  (427) 
FreeSolv

$$$$
(2,2-dimethyl-3H-benzofuran-7-yl) N-methylcarbamate
     RDKit          3D

 31 32  0  0  0  0  0  0  0  0999 V2000
    5.0724   -3.7412   -0.4515 C   0  0  0  0  0  0  0  0  0  0  0  0
    3.7316   -4.0214   -1.1421 C   0  0  0  0  0  0  0  0  0  0  0  0
    2.6864   -4.5830   -0.1501 C   0  0  0  0  0  0  0  0  0  0  0  0
    1.8586   -3.3747    0.0643 C   0  0  0  0  0  0  0  0  0  0  0  0
    0.8323   -3.1650    0.9679 C   0  0  0  0  0  0  0  0  0  0  0  0
    0.1674   -1.9365    0.9400 C   0  0  0  0  0  0  0  0  0  0  0  0
    0.5301   -0.9485    0.0103 C   0  0  0  0  0  0  0  0  0  0  0  0
    1.5628   -1.1767   -0.9007 C   0  0  0  0  0  0  0  0  0  0  0  0
    2.2115   -2.3956   -0.8487 C   0  0  0  0  0  0  0  0  0  0  0  0
    3.2389   -2.7594   -1.6786 O   0  0  0  0  0  0  0  0  0  0  0  0
    1.9134   -0.2255   -1.8016 O   0  0  0  0  0  0  0  0  0  0  0  0
    2.9091    0.6736   -1.3662 C   0  0  0  0  0  0  0  0  0  0  0  0
    3.4336    0.6180   -0.2578 O   0  0  0  0  0  0  0  0  0  0  0  0
    3.1964    1.6025   -2.3451 N   0  0  0  0  0  0  0  0  0  0  0  0
    4.1766    2.6516   -2.1873 C   0  0  0  0  0  0  0  0  0  0  0  0
    3.9419   -4.9731   -2.3209 C   0  0  0  0  0  0  0  0  0  0  0  0
    5.4870   -4.6616   -0.0294 H   0  0  0  0  0  0  0  0  0  0  0  0
    5.7946   -3.3334   -1.1650 H   0  0  0  0  0  0  0  0  0  0  0  0
    4.9432   -3.0182    0.3594 H   0  0  0  0  0  0  0  0  0  0  0  0
    2.0750   -5.3744   -0.5972 H   0  0  0  0  0  0  0  0  0  0  0  0
    3.1382   -4.9542    0.7747 H   0  0  0  0  0  0  0  0  0  0  0  0
    0.5436   -3.9322    1.6782 H   0  0  0  0  0  0  0  0  0  0  0  0
   -0.6416   -1.7448    1.6398 H   0  0  0  0  0  0  0  0  0  0  0  0
   -0.0036   -0.0015    0.0040 H   0  0  0  0  0  0  0  0  0  0  0  0
    2.6914    1.5455   -3.2241 H   0  0  0  0  0  0  0  0  0  0  0  0
    5.1520    2.2982   -2.5236 H   0  0  0  0  0  0  0  0  0  0  0  0
    4.2436    2.9417   -1.1378 H   0  0  0  0  0  0  0  0  0  0  0  0
    3.8876    3.5211   -2.7794 H   0  0  0  0  0  0  0  0  0  0  0  0
    2.9892   -5.1697   -2.8084 H   0  0  0  0  0  0  0  0  0  0  0  0
    4.3623   -5.9113   -1.9646 H   0  0  0  0  0  0  0  0  0  0  0  0
    4.6255   -4.5235   -3.0382 H   0  0  0  0  0  0  0  0  0  0  0  0
  1  2  1  0
  2 10  1  0
  2  3  1  0
  3  4  1  0
  4  9  2  0
  4  5  1  0
  5  6  2  0
  6  7  1  0
  7  8  2  0
  8  9  1  0
  9 10  1  0
  8 11  1  0
 11 12  1  0
 12 13  2  0
 12 14  1  0
 14 15  1  0
  2 16  1  0
  1 17  1  0
  1 18  1  0
  1 19  1  0
  3 20  1  0
  3 21  1  0
  5 22  1  0
  6 23  1  0
  7 24  1  0
 14 25  1  0
 15 26  1  0
 15 27  1  0
 15 28  1  0
 16 29  1  0
 16 30  1  0
 16 31  1  0
M  END
>  <_TriposChargeType>  (428) 
USER_CHARGES

>  <solvdG>  (428) 
-9.61

>  <fdG>  (428) 
-11.13

>  <fname>  (428) 
mobley_6620221

>  <cname>  (428) 
 carbofuran

>  <dataset>  (428) 
FreeSolv

$$$$
propanal
     RDKit          3D

 10  9  0  0  0  0  0  0  0  0999 V2000
    0.4289   -0.8128    0.5955 C   0  0  0  0  0  0  0  0  0  0  0  0
   -0.6597   -1.6801    1.1974 C   0  0  0  0  0  0  0  0  0  0  0  0
   -1.5416   -2.3179    0.1522 C   0  0  0  0  0  0  0  0  0  0  0  0
   -1.4121   -2.1668   -1.0578 O   0  0  0  0  0  0  0  0  0  0  0  0
    1.0515   -0.3644    1.3768 H   0  0  0  0  0  0  0  0  0  0  0  0
   -0.0002    0.0010    0.0015 H   0  0  0  0  0  0  0  0  0  0  0  0
    1.0747   -1.4087   -0.0567 H   0  0  0  0  0  0  0  0  0  0  0  0
   -0.2139   -2.4828    1.7934 H   0  0  0  0  0  0  0  0  0  0  0  0
   -1.2989   -1.0801    1.8530 H   0  0  0  0  0  0  0  0  0  0  0  0
   -2.3474   -2.9578    0.5516 H   0  0  0  0  0  0  0  0  0  0  0  0
  1  2  1  0
  2  3  1  0
  3  4  2  0
  1  5  1  0
  1  6  1  0
  1  7  1  0
  2  8  1  0
  2  9  1  0
  3 10  1  0
M  END
>  <_TriposChargeType>  (429) 
USER_CHARGES

>  <solvdG>  (429) 
-3.43

>  <fdG>  (429) 
-3.15

>  <fname>  (429) 
mobley_6632459

>  <cname>  (429) 
 propanal

>  <dataset>  (429) 
FreeSolv

$$$$
diiodomethane
     RDKit          3D

  5  4  0  0  0  0  0  0  0  0999 V2000
    0.2349   -0.0311    0.0689 C   0  0  0  0  0  0  0  0  0  0  0  0
   -0.5656   -0.3480   -1.8686 I   0  0  0  0  0  0  0  0  0  0  0  0
   -1.3703    0.6042    1.3001 I   0  0  0  0  0  0  0  0  0  0  0  0
    1.0230    0.7278    0.0411 H   0  0  0  0  0  0  0  0  0  0  0  0
    0.6780   -0.9528    0.4585 H   0  0  0  0  0  0  0  0  0  0  0  0
  1  2  1  0
  1  3  1  0
  1  4  1  0
  1  5  1  0
M  END
>  <_TriposChargeType>  (430) 
USER_CHARGES

>  <solvdG>  (430) 
-2.49

>  <fdG>  (430) 
-1.88

>  <fname>  (430) 
mobley_664966

>  <cname>  (430) 
 diiodomethane

>  <dataset>  (430) 
FreeSolv

$$$$
1,2,3,4-tetrachloro-5-(2,3,4-trichlorophenyl)benzene
     RDKit          3D

 22 23  0  0  0  0  0  0  0  0999 V2000
    1.8851   -1.0363   -0.1124 C   0  0  0  0  0  0  0  0  0  0  0  0
    2.9210   -1.6309    0.6081 C   0  0  0  0  0  0  0  0  0  0  0  0
    2.8783   -1.6520    2.0022 C   0  0  0  0  0  0  0  0  0  0  0  0
    1.7997   -1.0786    2.6757 C   0  0  0  0  0  0  0  0  0  0  0  0
    0.7638   -0.4841    1.9551 C   0  0  0  0  0  0  0  0  0  0  0  0
    0.8066   -0.4630    0.5610 C   0  0  0  0  0  0  0  0  0  0  0  0
   -0.2436    0.1419   -0.2383 C   0  0  0  0  0  0  0  0  0  0  0  0
   -0.1170    1.4930   -0.5611 C   0  0  0  0  0  0  0  0  0  0  0  0
   -1.0984    2.1220   -1.3272 C   0  0  0  0  0  0  0  0  0  0  0  0
   -2.2065    1.3999   -1.7704 C   0  0  0  0  0  0  0  0  0  0  0  0
   -2.3331    0.0488   -1.4474 C   0  0  0  0  0  0  0  0  0  0  0  0
   -1.3517   -0.5802   -0.6814 C   0  0  0  0  0  0  0  0  0  0  0  0
   -1.4918   -2.2652   -0.2632 Cl  0  0  0  0  0  0  0  0  0  0  0  0
   -3.7167   -0.8546   -1.9993 Cl  0  0  0  0  0  0  0  0  0  0  0  0
   -3.4233    2.1985   -2.7252 Cl  0  0  0  0  0  0  0  0  0  0  0  0
   -0.8687    3.7993   -1.6883 Cl  0  0  0  0  0  0  0  0  0  0  0  0
   -0.5910    0.2368    2.7779 Cl  0  0  0  0  0  0  0  0  0  0  0  0
    1.7570   -1.1109    4.4150 Cl  0  0  0  0  0  0  0  0  0  0  0  0
    4.2004   -2.4076    2.8246 Cl  0  0  0  0  0  0  0  0  0  0  0  0
    1.9356   -1.0293   -1.1989 H   0  0  0  0  0  0  0  0  0  0  0  0
    3.7536   -2.0727    0.0662 H   0  0  0  0  0  0  0  0  0  0  0  0
    0.7493    2.0559   -0.2175 H   0  0  0  0  0  0  0  0  0  0  0  0
  1  6  2  0
  1  2  1  0
  2  3  2  0
  3  4  1  0
  4  5  2  0
  5  6  1  0
  6  7  1  0
  7 12  1  0
  7  8  2  0
  8  9  1  0
  9 10  2  0
 10 11  1  0
 11 12  2  0
 12 13  1  0
 11 14  1  0
 10 15  1  0
  9 16  1  0
  5 17  1  0
  4 18  1  0
  3 19  1  0
  1 20  1  0
  2 21  1  0
  8 22  1  0
M  END
>  <_TriposChargeType>  (431) 
USER_CHARGES

>  <solvdG>  (431) 
-4.4

>  <fdG>  (431) 
-0.81

>  <fname>  (431) 
mobley_667278

>  <cname>  (431) 
 1,2,3,4-tetrachloro-5-(2,3,4-trichlorophenyl)benzene

>  <dataset>  (431) 
FreeSolv

$$$$
3,5-dichloro-2,6-dimethoxy-phenol
     RDKit          3D

 21 21  0  0  0  0  0  0  0  0999 V2000
    1.3125   -2.1087   -2.1510 C   0  0  0  0  0  0  0  0  0  0  0  0
    1.9133   -1.0096   -1.4763 O   0  0  0  0  0  0  0  0  0  0  0  0
    1.8851   -1.0363   -0.1124 C   0  0  0  0  0  0  0  0  0  0  0  0
    2.9210   -1.6309    0.6081 C   0  0  0  0  0  0  0  0  0  0  0  0
    2.8783   -1.6520    2.0022 C   0  0  0  0  0  0  0  0  0  0  0  0
    1.7997   -1.0786    2.6757 C   0  0  0  0  0  0  0  0  0  0  0  0
    0.7638   -0.4841    1.9551 C   0  0  0  0  0  0  0  0  0  0  0  0
    0.8066   -0.4630    0.5610 C   0  0  0  0  0  0  0  0  0  0  0  0
   -0.2061    0.1188   -0.1434 O   0  0  0  0  0  0  0  0  0  0  0  0
   -0.2978    0.0810    2.6001 O   0  0  0  0  0  0  0  0  0  0  0  0
   -1.4136   -0.7636    2.8697 C   0  0  0  0  0  0  0  0  0  0  0  0
    1.7740   -1.1189    4.4004 Cl  0  0  0  0  0  0  0  0  0  0  0  0
    4.2666   -2.3491   -0.1982 Cl  0  0  0  0  0  0  0  0  0  0  0  0
    1.4014   -1.9670   -3.2309 H   0  0  0  0  0  0  0  0  0  0  0  0
    0.2594   -2.1798   -1.8676 H   0  0  0  0  0  0  0  0  0  0  0  0
    1.8282   -3.0277   -1.8627 H   0  0  0  0  0  0  0  0  0  0  0  0
    3.6862   -2.1159    2.5642 H   0  0  0  0  0  0  0  0  0  0  0  0
   -0.0314    0.0528   -1.0948 H   0  0  0  0  0  0  0  0  0  0  0  0
   -2.1810   -0.1858    3.3840 H   0  0  0  0  0  0  0  0  0  0  0  0
   -1.0861   -1.5995    3.4876 H   0  0  0  0  0  0  0  0  0  0  0  0
   -1.8036   -1.1348    1.9225 H   0  0  0  0  0  0  0  0  0  0  0  0
  1  2  1  0
  2  3  1  0
  3  8  2  0
  3  4  1  0
  4  5  2  0
  5  6  1  0
  6  7  2  0
  7  8  1  0
  8  9  1  0
  7 10  1  0
 10 11  1  0
  6 12  1  0
  4 13  1  0
  1 14  1  0
  1 15  1  0
  1 16  1  0
  5 17  1  0
  9 18  1  0
 11 19  1  0
 11 20  1  0
 11 21  1  0
M  END
>  <_TriposChargeType>  (432) 
USER_CHARGES

>  <solvdG>  (432) 
-6.44

>  <fdG>  (432) 
-5.98

>  <fname>  (432) 
mobley_6688723

>  <cname>  (432) 
 3,5-dichloro-2,6-dimethoxyphenol

>  <dataset>  (432) 
FreeSolv

$$$$
methanamine
     RDKit          3D

  7  6  0  0  0  0  0  0  0  0999 V2000
   -0.6179   -0.7479    0.5044 C   0  0  0  0  0  0  0  0  0  0  0  0
   -1.8495   -0.9393   -0.2112 N   0  0  0  0  0  0  0  0  0  0  0  0
   -0.2695   -1.6996    0.9140 H   0  0  0  0  0  0  0  0  0  0  0  0
   -0.7645   -0.0432    1.3274 H   0  0  0  0  0  0  0  0  0  0  0  0
    0.1501   -0.3505   -0.1647 H   0  0  0  0  0  0  0  0  0  0  0  0
   -2.7184   -0.9540    0.2997 H   0  0  0  0  0  0  0  0  0  0  0  0
   -1.8188   -1.2562   -1.1677 H   0  0  0  0  0  0  0  0  0  0  0  0
  1  2  1  0
  1  3  1  0
  1  4  1  0
  1  5  1  0
  2  6  1  0
  2  7  1  0
M  END
>  <_TriposChargeType>  (433) 
USER_CHARGES

>  <solvdG>  (433) 
-4.55

>  <fdG>  (433) 
-3.58

>  <fname>  (433) 
mobley_6714389

>  <cname>  (433) 
 methanamine

>  <dataset>  (433) 
FreeSolv

$$$$
2-hydroxyethyl nitrate
     RDKit          3D

 12 11  0  0  0  0  0  0  0  0999 V2000
   -2.1461   -0.1936   -0.1209 C   0  0  0  0  0  0  0  0  0  0  0  0
   -0.8936    0.4506    0.4416 C   0  0  0  0  0  0  0  0  0  0  0  0
   -0.8526    0.2362    1.8472 O   0  0  0  0  0  0  0  0  0  0  0  0
    0.2900    0.8045    2.4748 N   0  0  0  0  0  4  0  0  0  0  0  0
    1.0970    1.4026    1.7594 O   0  0  0  0  0  0  0  0  0  0  0  0
    0.3129    0.6112    3.6910 O   0  0  0  0  0  1  0  0  0  0  0  0
   -2.1145   -1.5886    0.1552 O   0  0  0  0  0  0  0  0  0  0  0  0
   -2.2043   -0.0621   -1.2059 H   0  0  0  0  0  0  0  0  0  0  0  0
   -3.0385    0.2289    0.3500 H   0  0  0  0  0  0  0  0  0  0  0  0
   -0.8901    1.5299    0.2612 H   0  0  0  0  0  0  0  0  0  0  0  0
    0.0000    0.0000    0.0000 H   0  0  0  0  0  0  0  0  0  0  0  0
   -2.9276   -1.9652   -0.2177 H   0  0  0  0  0  0  0  0  0  0  0  0
  1  2  1  0
  2  3  1  0
  3  4  1  0
  4  5  2  0
  4  6  1  0
  1  7  1  0
  1  8  1  0
  1  9  1  0
  2 10  1  0
  2 11  1  0
  7 12  1  0
M  CHG  2   4   1   6  -1
M  END
>  <_TriposChargeType>  (434) 
USER_CHARGES

>  <solvdG>  (434) 
-8.18

>  <fdG>  (434) 
-6.68

>  <fname>  (434) 
mobley_6727159

>  <cname>  (434) 
 2-(nitrooxy)ethan-1-ol

>  <dataset>  (434) 
FreeSolv

$$$$
(1R,2R,3S,5R,6S,7S)-1,3,5,7,8,9,10,10-octachloro-tricyclo[5.2.1.0^{2,6}]dec-8-ene
     RDKit          3D

 24 26  0  0  0  0  0  0  0  0999 V2000
   -0.2997   -1.4426    2.4939 C   0  0  0  0  0  0  0  0  0  0  0  0
   -1.2518   -0.2959    2.1933 C   0  0  2  0  0  0  0  0  0  0  0  0
   -2.2672   -0.6704    2.3794 H   0  0  0  0  0  0  0  0  0  0  0  0
   -1.1662    0.0243    0.6880 C   0  0  2  0  0  0  0  0  0  0  0  0
   -2.2107    0.0899    0.3451 H   0  0  0  0  0  0  0  0  0  0  0  0
   -0.4911   -1.2618    0.0253 C   0  0  2  0  0  0  0  0  0  0  0  0
   -1.2377   -1.7632   -0.6110 H   0  0  0  0  0  0  0  0  0  0  0  0
   -0.2358   -2.2316    1.1959 C   0  0  1  0  0  0  0  0  0  0  0  0
   -1.0775   -2.9364    1.2120 H   0  0  0  0  0  0  0  0  0  0  0  0
    1.2030   -3.2528    1.1288 Cl  0  0  0  0  0  0  0  0  0  0  0  0
    0.5871   -0.6139   -0.9255 C   0  0  1  0  0  0  0  0  0  0  0  0
   -0.2607    0.0641   -2.0025 C   0  0  0  0  0  0  0  0  0  0  0  0
   -0.8265    1.1426   -1.4470 C   0  0  0  0  0  0  0  0  0  0  0  0
   -0.3659    1.2018    0.0100 C   0  0  2  0  0  0  0  0  0  0  0  0
    1.0817    0.6677   -0.1936 C   0  0  0  0  0  0  0  0  0  0  0  0
    2.0341    0.4100    1.2778 Cl  0  0  0  0  0  0  0  0  0  0  0  0
    2.1256    1.7471   -1.2253 Cl  0  0  0  0  0  0  0  0  0  0  0  0
   -0.4803    2.8001    0.7196 Cl  0  0  0  0  0  0  0  0  0  0  0  0
   -1.9508    2.2014   -2.1446 Cl  0  0  0  0  0  0  0  0  0  0  0  0
   -0.5075   -0.5513   -3.5620 Cl  0  0  0  0  0  0  0  0  0  0  0  0
    1.8516   -1.6422   -1.5695 Cl  0  0  0  0  0  0  0  0  0  0  0  0
   -1.0467    1.0332    3.3374 Cl  0  0  0  0  0  0  0  0  0  0  0  0
   -0.6912   -2.0670    3.3071 H   0  0  0  0  0  0  0  0  0  0  0  0
    0.6796   -1.1042    2.8348 H   0  0  0  0  0  0  0  0  0  0  0  0
  1  8  1  0
  1  2  1  0
  2  3  1  6
  2  4  1  0
  4  5  1  6
  4 14  1  0
  4  6  1  0
  6  7  1  6
  6  8  1  0
  8  9  1  1
  8 10  1  0
  6 11  1  0
 11 15  1  0
 11 12  1  0
 12 13  2  0
 13 14  1  0
 14 15  1  0
 15 16  1  0
 15 17  1  0
 14 18  1  1
 13 19  1  0
 12 20  1  0
 11 21  1  6
  2 22  1  0
  1 23  1  0
  1 24  1  0
M  END
>  <_TriposChargeType>  (435) 
USER_CHARGES

>  <solvdG>  (435) 
-3.44

>  <fdG>  (435) 
-3.23

>  <fname>  (435) 
mobley_6733657

>  <cname>  (435) 
 chlordane

>  <dataset>  (435) 
FreeSolv

$$$$
1,4-dioxane
     RDKit          3D

 14 14  0  0  0  0  0  0  0  0999 V2000
    0.2264   -0.9151   -1.0354 C   0  0  0  0  0  0  0  0  0  0  0  0
   -0.1047    0.5471   -1.2847 C   0  0  0  0  0  0  0  0  0  0  0  0
    0.3671    1.3411   -0.1935 O   0  0  0  0  0  0  0  0  0  0  0  0
   -0.2263    0.9151    1.0354 C   0  0  0  0  0  0  0  0  0  0  0  0
    0.1048   -0.5471    1.2847 C   0  0  0  0  0  0  0  0  0  0  0  0
   -0.3672   -1.3411    0.1934 O   0  0  0  0  0  0  0  0  0  0  0  0
    1.3096   -1.0719   -0.9761 H   0  0  0  0  0  0  0  0  0  0  0  0
   -0.1683   -1.5413   -1.8409 H   0  0  0  0  0  0  0  0  0  0  0  0
    0.3802    0.9005   -2.1995 H   0  0  0  0  0  0  0  0  0  0  0  0
   -1.1857    0.6970   -1.3875 H   0  0  0  0  0  0  0  0  0  0  0  0
    0.1684    1.5414    1.8410 H   0  0  0  0  0  0  0  0  0  0  0  0
   -1.3096    1.0719    0.9762 H   0  0  0  0  0  0  0  0  0  0  0  0
    1.1857   -0.6971    1.3875 H   0  0  0  0  0  0  0  0  0  0  0  0
   -0.3801   -0.9005    2.1995 H   0  0  0  0  0  0  0  0  0  0  0  0
  1  6  1  0
  1  2  1  0
  2  3  1  0
  3  4  1  0
  4  5  1  0
  5  6  1  0
  1  7  1  0
  1  8  1  0
  2  9  1  0
  2 10  1  0
  4 11  1  0
  4 12  1  0
  5 13  1  0
  5 14  1  0
M  END
>  <_TriposChargeType>  (436) 
USER_CHARGES

>  <solvdG>  (436) 
-5.06

>  <fdG>  (436) 
-4.27

>  <fname>  (436) 
mobley_6739648

>  <cname>  (436) 
 1,4-dioxane

>  <dataset>  (436) 
FreeSolv

$$$$
3,4-dimethylphenol
     RDKit          3D

 19 19  0  0  0  0  0  0  0  0999 V2000
    1.9522   -1.0266   -1.6043 C   0  0  0  0  0  0  0  0  0  0  0  0
    1.8851   -1.0363   -0.1124 C   0  0  0  0  0  0  0  0  0  0  0  0
    2.9210   -1.6309    0.6081 C   0  0  0  0  0  0  0  0  0  0  0  0
    2.8783   -1.6520    2.0022 C   0  0  0  0  0  0  0  0  0  0  0  0
    1.7997   -1.0786    2.6757 C   0  0  0  0  0  0  0  0  0  0  0  0
    0.7638   -0.4841    1.9551 C   0  0  0  0  0  0  0  0  0  0  0  0
    0.8066   -0.4630    0.5610 C   0  0  0  0  0  0  0  0  0  0  0  0
   -0.3147    0.1776   -0.1891 C   0  0  0  0  0  0  0  0  0  0  0  0
    1.7577   -1.1001    4.0359 O   0  0  0  0  0  0  0  0  0  0  0  0
    2.4651   -0.1239   -1.9501 H   0  0  0  0  0  0  0  0  0  0  0  0
    2.4902   -1.9044   -1.9772 H   0  0  0  0  0  0  0  0  0  0  0  0
    0.9482   -1.0527   -2.0408 H   0  0  0  0  0  0  0  0  0  0  0  0
    3.7652   -2.0812    0.0925 H   0  0  0  0  0  0  0  0  0  0  0  0
    3.6887   -2.1159    2.5576 H   0  0  0  0  0  0  0  0  0  0  0  0
   -0.0759   -0.0386    2.4835 H   0  0  0  0  0  0  0  0  0  0  0  0
   -0.1047    1.2412   -0.3511 H   0  0  0  0  0  0  0  0  0  0  0  0
   -0.4641   -0.3018   -1.1645 H   0  0  0  0  0  0  0  0  0  0  0  0
   -1.2608    0.0875    0.3590 H   0  0  0  0  0  0  0  0  0  0  0  0
    2.5438   -1.5458    4.3897 H   0  0  0  0  0  0  0  0  0  0  0  0
  1  2  1  0
  2  7  2  0
  2  3  1  0
  3  4  2  0
  4  5  1  0
  5  6  2  0
  6  7  1  0
  7  8  1  0
  5  9  1  0
  1 10  1  0
  1 11  1  0
  1 12  1  0
  3 13  1  0
  4 14  1  0
  6 15  1  0
  8 16  1  0
  8 17  1  0
  8 18  1  0
  9 19  1  0
M  END
>  <_TriposChargeType>  (437) 
USER_CHARGES

>  <solvdG>  (437) 
-6.5

>  <fdG>  (437) 
-5.47

>  <fname>  (437) 
mobley_6743808

>  <cname>  (437) 
 3,4-dimethylphenol

>  <dataset>  (437) 
FreeSolv

$$$$
tetrafluoromethane
     RDKit          3D

  5  4  0  0  0  0  0  0  0  0999 V2000
   -0.0000    0.0000    0.0000 C   0  0  0  0  0  0  0  0  0  0  0  0
    0.9413    0.8517    0.4400 F   0  0  0  0  0  0  0  0  0  0  0  0
    0.4892   -1.2513    0.0080 F   0  0  0  0  0  0  0  0  0  0  0  0
   -0.3559    0.3337   -1.2518 F   0  0  0  0  0  0  0  0  0  0  0  0
   -1.0746    0.0659    0.8038 F   0  0  0  0  0  0  0  0  0  0  0  0
  1  2  1  0
  1  3  1  0
  1  4  1  0
  1  5  1  0
M  END
>  <_TriposChargeType>  (438) 
USER_CHARGES

>  <solvdG>  (438) 
3.12

>  <fdG>  (438) 
2.49

>  <fname>  (438) 
mobley_676247

>  <cname>  (438) 
 tetrafluoromethane

>  <dataset>  (438) 
FreeSolv

$$$$
1-(4-pyridyl)ethanone
     RDKit          3D

 16 16  0  0  0  0  0  0  0  0999 V2000
    3.7675    0.7174    1.4135 C   0  0  0  0  0  0  0  0  0  0  0  0
    2.3223    0.8750    1.0600 C   0  0  0  0  0  0  0  0  0  0  0  0
    2.0050    1.7850    0.3012 O   0  0  0  0  0  0  0  0  0  0  0  0
    1.3879   -0.0684    1.6522 C   0  0  0  0  0  0  0  0  0  0  0  0
    0.2265   -0.4197    0.9733 C   0  0  0  0  0  0  0  0  0  0  0  0
   -0.6317   -1.3224    1.5803 C   0  0  0  0  0  0  0  0  0  0  0  0
   -0.4092   -1.8816    2.7908 N   0  0  0  0  0  0  0  0  0  0  0  0
    0.7299   -1.5161    3.4206 C   0  0  0  0  0  0  0  0  0  0  0  0
    1.6520   -0.6227    2.8997 C   0  0  0  0  0  0  0  0  0  0  0  0
    4.0772    1.2823    2.3070 H   0  0  0  0  0  0  0  0  0  0  0  0
    4.4487    0.9957    0.5944 H   0  0  0  0  0  0  0  0  0  0  0  0
    4.0389   -0.3256    1.6555 H   0  0  0  0  0  0  0  0  0  0  0  0
   -0.0108   -0.0052   -0.0008 H   0  0  0  0  0  0  0  0  0  0  0  0
   -1.5513   -1.6283    1.0929 H   0  0  0  0  0  0  0  0  0  0  0  0
    0.8894   -1.9765    4.3899 H   0  0  0  0  0  0  0  0  0  0  0  0
    2.5483   -0.3695    3.4560 H   0  0  0  0  0  0  0  0  0  0  0  0
  1  2  1  0
  2  3  2  0
  2  4  1  0
  4  9  2  0
  4  5  1  0
  5  6  2  0
  6  7  1  0
  7  8  2  0
  8  9  1  0
  1 10  1  0
  1 11  1  0
  1 12  1  0
  5 13  1  0
  6 14  1  0
  8 15  1  0
  9 16  1  0
M  END
>  <_TriposChargeType>  (439) 
USER_CHARGES

>  <solvdG>  (439) 
-7.62

>  <fdG>  (439) 
-7.57

>  <fname>  (439) 
mobley_6794076

>  <cname>  (439) 
 1-(4-pyridyl)ethanone

>  <dataset>  (439) 
FreeSolv

$$$$
1,2,4,5-tetrachlorobenzene
     RDKit          3D

 12 12  0  0  0  0  0  0  0  0999 V2000
    1.8851   -1.0363   -0.1124 C   0  0  0  0  0  0  0  0  0  0  0  0
    2.9210   -1.6309    0.6081 C   0  0  0  0  0  0  0  0  0  0  0  0
    2.8783   -1.6520    2.0022 C   0  0  0  0  0  0  0  0  0  0  0  0
    1.7997   -1.0786    2.6757 C   0  0  0  0  0  0  0  0  0  0  0  0
    0.7638   -0.4841    1.9551 C   0  0  0  0  0  0  0  0  0  0  0  0
    0.8066   -0.4630    0.5610 C   0  0  0  0  0  0  0  0  0  0  0  0
   -0.4461    0.2591   -0.3868 Cl  0  0  0  0  0  0  0  0  0  0  0  0
   -0.5450    0.2094    2.8467 Cl  0  0  0  0  0  0  0  0  0  0  0  0
    4.1307   -2.3743    2.9502 Cl  0  0  0  0  0  0  0  0  0  0  0  0
    4.2304   -2.3241   -0.2829 Cl  0  0  0  0  0  0  0  0  0  0  0  0
    1.9185   -1.0190   -1.2000 H   0  0  0  0  0  0  0  0  0  0  0  0
    1.7665   -1.0950    3.7633 H   0  0  0  0  0  0  0  0  0  0  0  0
  1  6  2  0
  1  2  1  0
  2  3  2  0
  3  4  1  0
  4  5  2  0
  5  6  1  0
  6  7  1  0
  5  8  1  0
  3  9  1  0
  2 10  1  0
  1 11  1  0
  4 12  1  0
M  END
>  <_TriposChargeType>  (440) 
USER_CHARGES

>  <solvdG>  (440) 
-1.34

>  <fdG>  (440) 
0.04

>  <fname>  (440) 
mobley_6804509

>  <cname>  (440) 
 1,2,4,5-tetrachlorobenzene

>  <dataset>  (440) 
FreeSolv

$$$$
hexane
     RDKit          3D

 20 19  0  0  0  0  0  0  0  0999 V2000
   -0.7496   -0.7226   -0.3375 C   0  0  0  0  0  0  0  0  0  0  0  0
   -0.8325   -0.7252   -1.8556 C   0  0  0  0  0  0  0  0  0  0  0  0
   -1.8736   -1.7251   -2.3579 C   0  0  0  0  0  0  0  0  0  0  0  0
   -1.9540   -1.7248   -3.8854 C   0  0  0  0  0  0  0  0  0  0  0  0
   -2.9953   -2.7248   -4.3874 C   0  0  0  0  0  0  0  0  0  0  0  0
   -3.0784   -2.7277   -5.9055 C   0  0  0  0  0  0  0  0  0  0  0  0
   -0.0020   -0.0040    0.0134 H   0  0  0  0  0  0  0  0  0  0  0  0
   -0.4657   -1.7143    0.0284 H   0  0  0  0  0  0  0  0  0  0  0  0
   -1.7147   -0.4597    0.1074 H   0  0  0  0  0  0  0  0  0  0  0  0
    0.1520   -0.9733   -2.2688 H   0  0  0  0  0  0  0  0  0  0  0  0
   -1.0859    0.2829   -2.2037 H   0  0  0  0  0  0  0  0  0  0  0  0
   -2.8557   -1.4750   -1.9383 H   0  0  0  0  0  0  0  0  0  0  0  0
   -1.6177   -2.7312   -2.0036 H   0  0  0  0  0  0  0  0  0  0  0  0
   -0.9721   -1.9749   -4.3052 H   0  0  0  0  0  0  0  0  0  0  0  0
   -2.2101   -0.7189   -4.2396 H   0  0  0  0  0  0  0  0  0  0  0  0
   -2.7416   -3.7329   -4.0395 H   0  0  0  0  0  0  0  0  0  0  0  0
   -3.9797   -2.4768   -3.9739 H   0  0  0  0  0  0  0  0  0  0  0  0
   -3.8261   -3.4463   -6.2564 H   0  0  0  0  0  0  0  0  0  0  0  0
   -3.3485   -1.7372   -6.2855 H   0  0  0  0  0  0  0  0  0  0  0  0
   -2.1117   -3.0051   -6.3374 H   0  0  0  0  0  0  0  0  0  0  0  0
  1  2  1  0
  2  3  1  0
  3  4  1  0
  4  5  1  0
  5  6  1  0
  1  7  1  0
  1  8  1  0
  1  9  1  0
  2 10  1  0
  2 11  1  0
  3 12  1  0
  3 13  1  0
  4 14  1  0
  4 15  1  0
  5 16  1  0
  5 17  1  0
  6 18  1  0
  6 19  1  0
  6 20  1  0
M  END
>  <_TriposChargeType>  (441) 
USER_CHARGES

>  <solvdG>  (441) 
2.48

>  <fdG>  (441) 
2.85

>  <fname>  (441) 
mobley_6812653

>  <cname>  (441) 
 hexane

>  <dataset>  (441) 
FreeSolv

$$$$
[(1R)-1,2,2-trifluoroethoxy]benzene
     RDKit          3D

 19 19  0  0  0  0  0  0  0  0999 V2000
    1.8851   -1.0363   -0.1124 C   0  0  0  0  0  0  0  0  0  0  0  0
    2.9210   -1.6309    0.6081 C   0  0  0  0  0  0  0  0  0  0  0  0
    2.8783   -1.6520    2.0022 C   0  0  0  0  0  0  0  0  0  0  0  0
    1.7997   -1.0786    2.6757 C   0  0  0  0  0  0  0  0  0  0  0  0
    0.7638   -0.4841    1.9551 C   0  0  0  0  0  0  0  0  0  0  0  0
    0.8066   -0.4630    0.5610 C   0  0  0  0  0  0  0  0  0  0  0  0
    1.7593   -1.0981    4.0359 O   0  0  0  0  0  0  0  0  0  0  0  0
    3.0018   -1.0827    4.7396 C   0  0  1  0  0  0  0  0  0  0  0  0
    3.7798   -0.5504    4.1804 H   0  0  0  0  0  0  0  0  0  0  0  0
    2.7983   -0.4229    6.0836 C   0  0  0  0  0  0  0  0  0  0  0  0
    3.9704   -0.4015    6.7627 F   0  0  0  0  0  0  0  0  0  0  0  0
    1.9275   -1.1545    6.8232 F   0  0  0  0  0  0  0  0  0  0  0  0
    3.3981   -2.3663    4.9525 F   0  0  0  0  0  0  0  0  0  0  0  0
    1.9184   -1.0206   -1.1979 H   0  0  0  0  0  0  0  0  0  0  0  0
    3.7605   -2.0773    0.0830 H   0  0  0  0  0  0  0  0  0  0  0  0
    3.6889   -2.1149    2.5584 H   0  0  0  0  0  0  0  0  0  0  0  0
   -0.0785   -0.0345    2.4737 H   0  0  0  0  0  0  0  0  0  0  0  0
   -0.0001    0.0001    0.0001 H   0  0  0  0  0  0  0  0  0  0  0  0
    2.4101    0.5959    5.9991 H   0  0  0  0  0  0  0  0  0  0  0  0
  1  6  2  0
  1  2  1  0
  2  3  2  0
  3  4  1  0
  4  5  2  0
  5  6  1  0
  4  7  1  0
  7  8  1  0
  8  9  1  6
  8 10  1  0
 10 11  1  0
 10 12  1  0
  8 13  1  0
  1 14  1  0
  2 15  1  0
  3 16  1  0
  5 17  1  0
  6 18  1  0
 10 19  1  0
M  END
>  <_TriposChargeType>  (442) 
USER_CHARGES

>  <solvdG>  (442) 
-1.29

>  <fdG>  (442) 
-3.04

>  <fname>  (442) 
mobley_6843802

>  <cname>  (442) 
 1,2,2-trifluoroethoxybenzene

>  <dataset>  (442) 
FreeSolv

$$$$
isopropyl formate
     RDKit          3D

 14 13  0  0  0  0  0  0  0  0999 V2000
    1.0765    0.0499    0.1958 C   0  0  0  0  0  0  0  0  0  0  0  0
    1.3532    0.9191    1.4130 C   0  0  0  0  0  0  0  0  0  0  0  0
    2.8427    1.0382    1.6976 C   0  0  0  0  0  0  0  0  0  0  0  0
    0.8123    2.2184    1.1940 O   0  0  0  0  0  0  0  0  0  0  0  0
    0.3773    2.8688    2.3074 C   0  0  0  0  0  0  0  0  0  0  0  0
    0.4005    2.4637    3.4590 O   0  0  0  0  0  0  0  0  0  0  0  0
    0.0028   -0.0291    0.0000 H   0  0  0  0  0  0  0  0  0  0  0  0
    1.5641    0.4693   -0.6907 H   0  0  0  0  0  0  0  0  0  0  0  0
    1.4833   -0.9585    0.3305 H   0  0  0  0  0  0  0  0  0  0  0  0
    0.8468    0.4961    2.2868 H   0  0  0  0  0  0  0  0  0  0  0  0
    3.0308    1.6651    2.5746 H   0  0  0  0  0  0  0  0  0  0  0  0
    3.3614    1.4749    0.8374 H   0  0  0  0  0  0  0  0  0  0  0  0
    3.2912    0.0533    1.8684 H   0  0  0  0  0  0  0  0  0  0  0  0
   -0.0146    3.8539    2.0105 H   0  0  0  0  0  0  0  0  0  0  0  0
  1  2  1  0
  2  3  1  0
  2  4  1  0
  4  5  1  0
  5  6  2  0
  1  7  1  0
  1  8  1  0
  1  9  1  0
  2 10  1  0
  3 11  1  0
  3 12  1  0
  3 13  1  0
  5 14  1  0
M  END
>  <_TriposChargeType>  (443) 
USER_CHARGES

>  <solvdG>  (443) 
-2.02

>  <fdG>  (443) 
-3.59

>  <fname>  (443) 
mobley_6854178

>  <cname>  (443) 
 isopropyl formate

>  <dataset>  (443) 
FreeSolv

$$$$
1,1-dimethyl-3-phenyl-urea
     RDKit          3D

 24 24  0  0  0  0  0  0  0  0999 V2000
    0.6784   -0.7210   -0.2299 C   0  0  0  0  0  0  0  0  0  0  0  0
    1.8317    0.0809   -0.6182 N   0  0  0  0  0  0  0  0  0  0  0  0
    1.5872    1.4497   -1.0681 C   0  0  0  0  0  0  0  0  0  0  0  0
    3.1092   -0.5202   -0.5333 C   0  0  0  0  0  0  0  0  0  0  0  0
    3.2567   -1.6813   -0.1459 O   0  0  0  0  0  0  0  0  0  0  0  0
    4.1539    0.3102   -0.9470 N   0  0  0  0  0  0  0  0  0  0  0  0
    5.3835   -0.0753   -1.5363 C   0  0  0  0  0  0  0  0  0  0  0  0
    6.3214    0.8949   -1.8896 C   0  0  0  0  0  0  0  0  0  0  0  0
    7.5326    0.5159   -2.4686 C   0  0  0  0  0  0  0  0  0  0  0  0
    7.8058   -0.8331   -2.6944 C   0  0  0  0  0  0  0  0  0  0  0  0
    6.8678   -1.8033   -2.3412 C   0  0  0  0  0  0  0  0  0  0  0  0
    5.6567   -1.4244   -1.7622 C   0  0  0  0  0  0  0  0  0  0  0  0
    0.2881   -1.2619   -1.0959 H   0  0  0  0  0  0  0  0  0  0  0  0
   -0.1114   -0.0787    0.1692 H   0  0  0  0  0  0  0  0  0  0  0  0
    0.9629   -1.4451    0.5383 H   0  0  0  0  0  0  0  0  0  0  0  0
    1.6214    2.1130   -0.2102 H   0  0  0  0  0  0  0  0  0  0  0  0
    0.6093    1.4988   -1.5361 H   0  0  0  0  0  0  0  0  0  0  0  0
    2.3537    1.7291   -1.7837 H   0  0  0  0  0  0  0  0  0  0  0  0
    4.0100    1.3133   -0.8903 H   0  0  0  0  0  0  0  0  0  0  0  0
    6.1196    1.9491   -1.7173 H   0  0  0  0  0  0  0  0  0  0  0  0
    8.2634    1.2709   -2.7435 H   0  0  0  0  0  0  0  0  0  0  0  0
    8.7486   -1.1281   -3.1456 H   0  0  0  0  0  0  0  0  0  0  0  0
    7.0813   -2.8536   -2.5169 H   0  0  0  0  0  0  0  0  0  0  0  0
    4.9340   -2.1896   -1.4902 H   0  0  0  0  0  0  0  0  0  0  0  0
  1  2  1  0
  2  3  1  0
  2  4  1  0
  4  5  2  0
  4  6  1  0
  6  7  1  0
  7 12  2  0
  7  8  1  0
  8  9  2  0
  9 10  1  0
 10 11  2  0
 11 12  1  0
  1 13  1  0
  1 14  1  0
  1 15  1  0
  3 16  1  0
  3 17  1  0
  3 18  1  0
  6 19  1  0
  8 20  1  0
  9 21  1  0
 10 22  1  0
 11 23  1  0
 12 24  1  0
M  END
>  <_TriposChargeType>  (444) 
USER_CHARGES

>  <solvdG>  (444) 
-9.13

>  <fdG>  (444) 
-11.81

>  <fname>  (444) 
mobley_6861308

>  <cname>  (444) 
 fenuron

>  <dataset>  (444) 
FreeSolv

$$$$
(3S)-3-methylheptane
     RDKit          3D

 26 25  0  0  0  0  0  0  0  0999 V2000
    0.1378    0.8569    0.4569 C   0  0  0  0  0  0  0  0  0  0  0  0
    0.1824    0.7329    1.9716 C   0  0  0  0  0  0  0  0  0  0  0  0
    1.3510   -0.1423    2.4288 C   0  0  0  0  0  0  0  0  0  0  0  0
    1.3886   -0.2619    3.9557 C   0  0  0  0  0  0  0  0  0  0  0  0
    2.5482   -1.1349    4.4840 C   0  0  1  0  0  0  0  0  0  0  0  0
    2.4348   -2.1445    4.0679 H   0  0  0  0  0  0  0  0  0  0  0  0
    3.9118   -0.5889    4.0498 C   0  0  0  0  0  0  0  0  0  0  0  0
    2.4436   -1.2327    6.0208 C   0  0  0  0  0  0  0  0  0  0  0  0
    3.5397   -2.0735    6.6609 C   0  0  0  0  0  0  0  0  0  0  0  0
   -0.7010    1.4845    0.1393 H   0  0  0  0  0  0  0  0  0  0  0  0
    1.0627    1.2983    0.0719 H   0  0  0  0  0  0  0  0  0  0  0  0
    0.0164   -0.1301   -0.0006 H   0  0  0  0  0  0  0  0  0  0  0  0
    0.2714    1.7334    2.4109 H   0  0  0  0  0  0  0  0  0  0  0  0
   -0.7630    0.3055    2.3258 H   0  0  0  0  0  0  0  0  0  0  0  0
    1.2497   -1.1337    1.9742 H   0  0  0  0  0  0  0  0  0  0  0  0
    2.2936    0.2882    2.0698 H   0  0  0  0  0  0  0  0  0  0  0  0
    0.4312   -0.6622    4.3135 H   0  0  0  0  0  0  0  0  0  0  0  0
    1.4846    0.7462    4.3795 H   0  0  0  0  0  0  0  0  0  0  0  0
    4.7295   -1.2104    4.4263 H   0  0  0  0  0  0  0  0  0  0  0  0
    3.9913   -0.5470    2.9583 H   0  0  0  0  0  0  0  0  0  0  0  0
    4.0835    0.4176    4.4420 H   0  0  0  0  0  0  0  0  0  0  0  0
    2.5020   -0.2241    6.4488 H   0  0  0  0  0  0  0  0  0  0  0  0
    1.4657   -1.6396    6.3063 H   0  0  0  0  0  0  0  0  0  0  0  0
    3.4310   -2.1183    7.7480 H   0  0  0  0  0  0  0  0  0  0  0  0
    4.5199   -1.6347    6.4480 H   0  0  0  0  0  0  0  0  0  0  0  0
    3.5332   -3.0945    6.2670 H   0  0  0  0  0  0  0  0  0  0  0  0
  1  2  1  0
  2  3  1  0
  3  4  1  0
  4  5  1  0
  5  6  1  6
  5  7  1  0
  5  8  1  0
  8  9  1  0
  1 10  1  0
  1 11  1  0
  1 12  1  0
  2 13  1  0
  2 14  1  0
  3 15  1  0
  3 16  1  0
  4 17  1  0
  4 18  1  0
  7 19  1  0
  7 20  1  0
  7 21  1  0
  8 22  1  0
  8 23  1  0
  9 24  1  0
  9 25  1  0
  9 26  1  0
M  END
>  <_TriposChargeType>  (445) 
USER_CHARGES

>  <solvdG>  (445) 
2.97

>  <fdG>  (445) 
3.03

>  <fname>  (445) 
mobley_6896128

>  <cname>  (445) 
 3-methylheptane

>  <dataset>  (445) 
FreeSolv

$$$$
methoxyethane
     RDKit          3D

 12 11  0  0  0  0  0  0  0  0999 V2000
    1.0616   -0.2681   -0.0006 C   0  0  0  0  0  0  0  0  0  0  0  0
    1.9101    0.9126   -0.4220 C   0  0  0  0  0  0  0  0  0  0  0  0
    1.5170    1.3236   -1.7228 O   0  0  0  0  0  0  0  0  0  0  0  0
    2.2819    2.4338   -2.1743 C   0  0  0  0  0  0  0  0  0  0  0  0
    1.3393   -0.6108    1.0001 H   0  0  0  0  0  0  0  0  0  0  0  0
   -0.0000   -0.0002   -0.0006 H   0  0  0  0  0  0  0  0  0  0  0  0
    1.1801   -1.0990   -0.7040 H   0  0  0  0  0  0  0  0  0  0  0  0
    2.9684    0.6361   -0.4446 H   0  0  0  0  0  0  0  0  0  0  0  0
    1.7730    1.7499    0.2687 H   0  0  0  0  0  0  0  0  0  0  0  0
    1.9490    2.7166   -3.1738 H   0  0  0  0  0  0  0  0  0  0  0  0
    3.3379    2.1605   -2.1890 H   0  0  0  0  0  0  0  0  0  0  0  0
    2.1280    3.2668   -1.4873 H   0  0  0  0  0  0  0  0  0  0  0  0
  1  2  1  0
  2  3  1  0
  3  4  1  0
  1  5  1  0
  1  6  1  0
  1  7  1  0
  2  8  1  0
  2  9  1  0
  4 10  1  0
  4 11  1  0
  4 12  1  0
M  END
>  <_TriposChargeType>  (446) 
USER_CHARGES

>  <solvdG>  (446) 
-2.1

>  <fdG>  (446) 
-0.71

>  <fname>  (446) 
mobley_6911232

>  <cname>  (446) 
 methoxyethane

>  <dataset>  (446) 
FreeSolv

$$$$
2-methoxyethanamine
     RDKit          3D

 14 13  0  0  0  0  0  0  0  0999 V2000
   -0.5619   -4.0348    1.8950 C   0  0  0  0  0  0  0  0  0  0  0  0
   -0.4496   -2.6238    2.0236 O   0  0  0  0  0  0  0  0  0  0  0  0
   -0.3627   -1.9891    0.7542 C   0  0  0  0  0  0  0  0  0  0  0  0
   -0.2448   -0.4884    0.9480 C   0  0  0  0  0  0  0  0  0  0  0  0
   -0.1540    0.1772   -0.3716 N   0  0  0  0  0  0  0  0  0  0  0  0
   -0.6263   -4.4879    2.8873 H   0  0  0  0  0  0  0  0  0  0  0  0
    0.3091   -4.4233    1.3611 H   0  0  0  0  0  0  0  0  0  0  0  0
   -1.4673   -4.2693    1.3303 H   0  0  0  0  0  0  0  0  0  0  0  0
    0.5272   -2.3723    0.2452 H   0  0  0  0  0  0  0  0  0  0  0  0
   -1.2496   -2.2509    0.1681 H   0  0  0  0  0  0  0  0  0  0  0  0
   -1.1159   -0.0868    1.4755 H   0  0  0  0  0  0  0  0  0  0  0  0
    0.6596   -0.2474    1.5147 H   0  0  0  0  0  0  0  0  0  0  0  0
   -1.0031    0.3589   -0.8418 H   0  0  0  0  0  0  0  0  0  0  0  0
    0.7379    0.2160   -0.7939 H   0  0  0  0  0  0  0  0  0  0  0  0
  1  2  1  0
  2  3  1  0
  3  4  1  0
  4  5  1  0
  1  6  1  0
  1  7  1  0
  1  8  1  0
  3  9  1  0
  3 10  1  0
  4 11  1  0
  4 12  1  0
  5 13  1  0
  5 14  1  0
M  END
>  <_TriposChargeType>  (447) 
USER_CHARGES

>  <solvdG>  (447) 
-6.55

>  <fdG>  (447) 
-5.03

>  <fname>  (447) 
mobley_6917738

>  <cname>  (447) 
 2-methoxyethanamine

>  <dataset>  (447) 
FreeSolv

$$$$
methyl 2-chloroacetate
     RDKit          3D

 11 10  0  0  0  0  0  0  0  0999 V2000
   -0.3568   -0.1352    1.0261 C   0  0  0  0  0  0  0  0  0  0  0  0
    0.7387   -0.4465    1.8931 O   0  0  0  0  0  0  0  0  0  0  0  0
    1.4126   -1.6000    1.6012 C   0  0  0  0  0  0  0  0  0  0  0  0
    1.1538   -2.3617    0.6799 O   0  0  0  0  0  0  0  0  0  0  0  0
    2.5225   -1.7683    2.6029 C   0  0  0  0  0  0  0  0  0  0  0  0
    3.4285   -3.2535    2.2666 Cl  0  0  0  0  0  0  0  0  0  0  0  0
   -0.8220    0.8001    1.3468 H   0  0  0  0  0  0  0  0  0  0  0  0
   -1.0879   -0.9471    1.0554 H   0  0  0  0  0  0  0  0  0  0  0  0
    0.0183   -0.0219    0.0061 H   0  0  0  0  0  0  0  0  0  0  0  0
    2.1057   -1.8466    3.6099 H   0  0  0  0  0  0  0  0  0  0  0  0
    3.2155   -0.9261    2.5345 H   0  0  0  0  0  0  0  0  0  0  0  0
  1  2  1  0
  2  3  1  0
  3  4  2  0
  3  5  1  0
  5  6  1  0
  1  7  1  0
  1  8  1  0
  1  9  1  0
  5 10  1  0
  5 11  1  0
M  END
>  <_TriposChargeType>  (448) 
USER_CHARGES

>  <solvdG>  (448) 
-4.0

>  <fdG>  (448) 
-3.82

>  <fname>  (448) 
mobley_6929123

>  <cname>  (448) 
 methyl 2-chloroacetate

>  <dataset>  (448) 
FreeSolv

$$$$
[(1R)-1,5-dimethyl-1-vinyl-hex-4-enyl] acetate
     RDKit          3D

 34 33  0  0  0  0  0  0  0  0999 V2000
   -2.6922    0.8274    2.4837 C   0  0  0  0  0  0  0  0  0  0  0  0
   -3.1574    2.2535    2.3971 C   0  0  0  0  0  0  0  0  0  0  0  0
   -3.8619    2.8952    3.3484 C   0  0  0  0  0  0  0  0  0  0  0  0
   -4.3550    4.3157    3.3217 C   0  0  0  0  0  0  0  0  0  0  0  0
   -3.3156    5.2689    3.9216 C   0  0  0  0  0  0  0  0  0  0  0  0
   -3.7272    6.7609    3.9415 C   0  0  2  0  0  0  0  0  0  0  0  0
   -5.0043    6.9710    4.7645 C   0  0  0  0  0  0  0  0  0  0  0  0
   -3.7700    7.3308    2.5387 C   0  0  0  0  0  0  0  0  0  0  0  0
   -4.8228    7.8661    1.9083 C   0  0  0  0  0  0  0  0  0  0  0  0
   -2.6939    7.4708    4.6470 O   0  0  0  0  0  0  0  0  0  0  0  0
   -2.8896    8.8119    4.7636 C   0  0  0  0  0  0  0  0  0  0  0  0
   -3.8397    9.4522    4.3341 O   0  0  0  0  0  0  0  0  0  0  0  0
   -1.7425    9.4151    5.5162 C   0  0  0  0  0  0  0  0  0  0  0  0
   -2.7592    2.9642    1.1314 C   0  0  0  0  0  0  0  0  0  0  0  0
   -3.4528    0.1582    2.0669 H   0  0  0  0  0  0  0  0  0  0  0  0
   -2.5244    0.5489    3.5291 H   0  0  0  0  0  0  0  0  0  0  0  0
   -1.7695    0.6366    1.9311 H   0  0  0  0  0  0  0  0  0  0  0  0
   -4.1052    2.3538    4.2618 H   0  0  0  0  0  0  0  0  0  0  0  0
   -4.5476    4.5777    2.2749 H   0  0  0  0  0  0  0  0  0  0  0  0
   -5.3154    4.4122    3.8354 H   0  0  0  0  0  0  0  0  0  0  0  0
   -2.3675    5.1694    3.3737 H   0  0  0  0  0  0  0  0  0  0  0  0
   -3.0778    4.9494    4.9469 H   0  0  0  0  0  0  0  0  0  0  0  0
   -5.2879    8.0302    4.7729 H   0  0  0  0  0  0  0  0  0  0  0  0
   -5.8523    6.3946    4.3823 H   0  0  0  0  0  0  0  0  0  0  0  0
   -4.8452    6.6934    5.8137 H   0  0  0  0  0  0  0  0  0  0  0  0
   -2.8314    7.2993    1.9865 H   0  0  0  0  0  0  0  0  0  0  0  0
   -4.7629    8.2520    0.8980 H   0  0  0  0  0  0  0  0  0  0  0  0
   -5.7838    7.9245    2.4088 H   0  0  0  0  0  0  0  0  0  0  0  0
   -0.9571    9.7145    4.8177 H   0  0  0  0  0  0  0  0  0  0  0  0
   -1.3576    8.6965    6.2442 H   0  0  0  0  0  0  0  0  0  0  0  0
   -2.0881   10.3030    6.0535 H   0  0  0  0  0  0  0  0  0  0  0  0
   -3.5297    2.8314    0.3648 H   0  0  0  0  0  0  0  0  0  0  0  0
   -2.6226    4.0403    1.2816 H   0  0  0  0  0  0  0  0  0  0  0  0
   -1.8156    2.5602    0.7499 H   0  0  0  0  0  0  0  0  0  0  0  0
  1  2  1  0
  2  3  2  3
  3  4  1  0
  4  5  1  0
  5  6  1  0
  6  7  1  0
  6  8  1  0
  8  9  2  3
  6 10  1  1
 10 11  1  0
 11 12  2  0
 11 13  1  0
  2 14  1  0
  1 15  1  0
  1 16  1  0
  1 17  1  0
  3 18  1  0
  4 19  1  0
  4 20  1  0
  5 21  1  0
  5 22  1  0
  7 23  1  0
  7 24  1  0
  7 25  1  0
  8 26  1  0
  9 27  1  0
  9 28  1  0
 13 29  1  0
 13 30  1  0
 13 31  1  0
 14 32  1  0
 14 33  1  0
 14 34  1  0
M  END
>  <_TriposChargeType>  (449) 
USER_CHARGES

>  <solvdG>  (449) 
-2.49

>  <fdG>  (449) 
-2.96

>  <fname>  (449) 
mobley_6935906

>  <cname>  (449) 
 (3R)-3,7-Dimethylocta-1,6-dien-3-yl acetate

>  <dataset>  (449) 
FreeSolv

$$$$
ethyl acetate
     RDKit          3D

 14 13  0  0  0  0  0  0  0  0999 V2000
   -1.8914    1.8641   -3.7227 C   0  0  0  0  0  0  0  0  0  0  0  0
   -2.5898    0.8104   -2.8899 C   0  0  0  0  0  0  0  0  0  0  0  0
   -1.9187    0.6904   -1.6316 O   0  0  0  0  0  0  0  0  0  0  0  0
   -2.4436   -0.2296   -0.7731 C   0  0  0  0  0  0  0  0  0  0  0  0
   -3.4150   -0.9444   -0.9795 O   0  0  0  0  0  0  0  0  0  0  0  0
   -1.6440   -0.2458    0.4943 C   0  0  0  0  0  0  0  0  0  0  0  0
   -2.3805    1.9813   -4.6938 H   0  0  0  0  0  0  0  0  0  0  0  0
   -1.8953    2.8295   -3.2061 H   0  0  0  0  0  0  0  0  0  0  0  0
   -0.8426    1.5946   -3.8856 H   0  0  0  0  0  0  0  0  0  0  0  0
   -2.5639   -0.1588   -3.3969 H   0  0  0  0  0  0  0  0  0  0  0  0
   -3.6313    1.0923   -2.7085 H   0  0  0  0  0  0  0  0  0  0  0  0
   -2.0610    0.4718    1.2052 H   0  0  0  0  0  0  0  0  0  0  0  0
   -0.5992   -0.0101    0.2768 H   0  0  0  0  0  0  0  0  0  0  0  0
   -1.6897   -1.2441    0.9392 H   0  0  0  0  0  0  0  0  0  0  0  0
  1  2  1  0
  2  3  1  0
  3  4  1  0
  4  5  2  0
  4  6  1  0
  1  7  1  0
  1  8  1  0
  1  9  1  0
  2 10  1  0
  2 11  1  0
  6 12  1  0
  6 13  1  0
  6 14  1  0
M  END
>  <_TriposChargeType>  (450) 
USER_CHARGES

>  <solvdG>  (450) 
-2.94

>  <fdG>  (450) 
-3.75

>  <fname>  (450) 
mobley_6973347

>  <cname>  (450) 
 ethyl acetate

>  <dataset>  (450) 
FreeSolv

$$$$
methyl cyclohexanecarboxylate
     RDKit          3D

 24 24  0  0  0  0  0  0  0  0999 V2000
    0.5122    0.8257    1.2899 C   0  0  0  0  0  0  0  0  0  0  0  0
    0.2960   -0.4208    0.6208 O   0  0  0  0  0  0  0  0  0  0  0  0
    0.7296   -0.4754   -0.6707 C   0  0  0  0  0  0  0  0  0  0  0  0
    1.2743    0.4266   -1.2927 O   0  0  0  0  0  0  0  0  0  0  0  0
    0.4389   -1.8334   -1.2408 C   0  0  0  0  0  0  0  0  0  0  0  0
    1.0887   -2.9170   -0.3777 C   0  0  0  0  0  0  0  0  0  0  0  0
    2.5978   -3.0262   -0.5898 C   0  0  0  0  0  0  0  0  0  0  0  0
    2.9486   -3.1872   -2.0644 C   0  0  0  0  0  0  0  0  0  0  0  0
    2.3702   -2.0527   -2.9021 C   0  0  0  0  0  0  0  0  0  0  0  0
    0.8603   -1.9147   -2.7094 C   0  0  0  0  0  0  0  0  0  0  0  0
    0.1306    0.7625    2.3119 H   0  0  0  0  0  0  0  0  0  0  0  0
    0.0009    1.6249    0.7474 H   0  0  0  0  0  0  0  0  0  0  0  0
    1.5844    1.0338    1.3160 H   0  0  0  0  0  0  0  0  0  0  0  0
   -0.6504   -1.9512   -1.1799 H   0  0  0  0  0  0  0  0  0  0  0  0
    0.8872   -2.7313    0.6843 H   0  0  0  0  0  0  0  0  0  0  0  0
    0.6300   -3.8836   -0.6225 H   0  0  0  0  0  0  0  0  0  0  0  0
    3.0980   -2.1374   -0.1875 H   0  0  0  0  0  0  0  0  0  0  0  0
    2.9829   -3.8843   -0.0269 H   0  0  0  0  0  0  0  0  0  0  0  0
    4.0376   -3.2147   -2.1833 H   0  0  0  0  0  0  0  0  0  0  0  0
    2.5626   -4.1465   -2.4306 H   0  0  0  0  0  0  0  0  0  0  0  0
    2.8627   -1.1113   -2.6301 H   0  0  0  0  0  0  0  0  0  0  0  0
    2.5895   -2.2283   -3.9615 H   0  0  0  0  0  0  0  0  0  0  0  0
    0.5073   -1.0336   -3.2590 H   0  0  0  0  0  0  0  0  0  0  0  0
    0.3717   -2.7858   -3.1648 H   0  0  0  0  0  0  0  0  0  0  0  0
  1  2  1  0
  2  3  1  0
  3  4  2  0
  3  5  1  0
  5 10  1  0
  5  6  1  0
  6  7  1  0
  7  8  1  0
  8  9  1  0
  9 10  1  0
  1 11  1  0
  1 12  1  0
  1 13  1  0
  5 14  1  0
  6 15  1  0
  6 16  1  0
  7 17  1  0
  7 18  1  0
  8 19  1  0
  8 20  1  0
  9 21  1  0
  9 22  1  0
 10 23  1  0
 10 24  1  0
M  END
>  <_TriposChargeType>  (451) 
USER_CHARGES

>  <solvdG>  (451) 
-3.3

>  <fdG>  (451) 
-4.38

>  <fname>  (451) 
mobley_6978427

>  <cname>  (451) 
 methyl cyclohexanecarboxylate

>  <dataset>  (451) 
FreeSolv

$$$$
isopropyl acetate
     RDKit          3D

 17 16  0  0  0  0  0  0  0  0999 V2000
    1.0765    0.0499    0.1958 C   0  0  0  0  0  0  0  0  0  0  0  0
    1.3532    0.9191    1.4130 C   0  0  0  0  0  0  0  0  0  0  0  0
    2.8427    1.0382    1.6976 C   0  0  0  0  0  0  0  0  0  0  0  0
    0.8123    2.2184    1.1940 O   0  0  0  0  0  0  0  0  0  0  0  0
    0.3746    2.8740    2.3101 C   0  0  0  0  0  0  0  0  0  0  0  0
    0.4075    2.4483    3.4568 O   0  0  0  0  0  0  0  0  0  0  0  0
   -0.1643    4.2196    1.9295 C   0  0  0  0  0  0  0  0  0  0  0  0
    0.0028   -0.0291    0.0000 H   0  0  0  0  0  0  0  0  0  0  0  0
    1.5641    0.4693   -0.6907 H   0  0  0  0  0  0  0  0  0  0  0  0
    1.4833   -0.9585    0.3305 H   0  0  0  0  0  0  0  0  0  0  0  0
    0.8468    0.4961    2.2868 H   0  0  0  0  0  0  0  0  0  0  0  0
    3.0308    1.6651    2.5746 H   0  0  0  0  0  0  0  0  0  0  0  0
    3.3614    1.4749    0.8374 H   0  0  0  0  0  0  0  0  0  0  0  0
    3.2912    0.0533    1.8684 H   0  0  0  0  0  0  0  0  0  0  0  0
   -1.2320    4.1429    1.7097 H   0  0  0  0  0  0  0  0  0  0  0  0
    0.3805    4.6064    1.0646 H   0  0  0  0  0  0  0  0  0  0  0  0
   -0.0293    4.9136    2.7642 H   0  0  0  0  0  0  0  0  0  0  0  0
  1  2  1  0
  2  3  1  0
  2  4  1  0
  4  5  1  0
  5  6  2  0
  5  7  1  0
  1  8  1  0
  1  9  1  0
  1 10  1  0
  2 11  1  0
  3 12  1  0
  3 13  1  0
  3 14  1  0
  7 15  1  0
  7 16  1  0
  7 17  1  0
M  END
>  <_TriposChargeType>  (452) 
USER_CHARGES

>  <solvdG>  (452) 
-2.64

>  <fdG>  (452) 
-3.37

>  <fname>  (452) 
mobley_6981465

>  <cname>  (452) 
 isopropyl acetate

>  <dataset>  (452) 
FreeSolv

$$$$
2-ethylpyridine
     RDKit          3D

 17 17  0  0  0  0  0  0  0  0999 V2000
    0.3912   -1.2950    5.8834 C   0  0  0  0  0  0  0  0  0  0  0  0
    0.9810   -2.1301    4.7574 C   0  0  0  0  0  0  0  0  0  0  0  0
    0.7299   -1.5161    3.4206 C   0  0  0  0  0  0  0  0  0  0  0  0
    1.6520   -0.6227    2.8997 C   0  0  0  0  0  0  0  0  0  0  0  0
    1.3879   -0.0684    1.6522 C   0  0  0  0  0  0  0  0  0  0  0  0
    0.2265   -0.4197    0.9733 C   0  0  0  0  0  0  0  0  0  0  0  0
   -0.6317   -1.3224    1.5803 C   0  0  0  0  0  0  0  0  0  0  0  0
   -0.4092   -1.8816    2.7908 N   0  0  0  0  0  0  0  0  0  0  0  0
    0.5808   -1.7539    6.8598 H   0  0  0  0  0  0  0  0  0  0  0  0
   -0.6920   -1.2013    5.7574 H   0  0  0  0  0  0  0  0  0  0  0  0
    0.8196   -0.2871    5.8970 H   0  0  0  0  0  0  0  0  0  0  0  0
    0.5570   -3.1412    4.7848 H   0  0  0  0  0  0  0  0  0  0  0  0
    2.0603   -2.2504    4.9115 H   0  0  0  0  0  0  0  0  0  0  0  0
    2.5545   -0.3569    3.4396 H   0  0  0  0  0  0  0  0  0  0  0  0
    2.0859    0.6359    1.2097 H   0  0  0  0  0  0  0  0  0  0  0  0
    0.0002   -0.0003   -0.0003 H   0  0  0  0  0  0  0  0  0  0  0  0
   -1.5509   -1.6291    1.0922 H   0  0  0  0  0  0  0  0  0  0  0  0
  1  2  1  0
  2  3  1  0
  3  8  2  0
  3  4  1  0
  4  5  2  0
  5  6  1  0
  6  7  2  0
  7  8  1  0
  1  9  1  0
  1 10  1  0
  1 11  1  0
  2 12  1  0
  2 13  1  0
  4 14  1  0
  5 15  1  0
  6 16  1  0
  7 17  1  0
M  END
>  <_TriposChargeType>  (453) 
USER_CHARGES

>  <solvdG>  (453) 
-4.33

>  <fdG>  (453) 
-3.31

>  <fname>  (453) 
mobley_6988468

>  <cname>  (453) 
 2-ethylpyridine

>  <dataset>  (453) 
FreeSolv

$$$$
3,5-dimethylphenol
     RDKit          3D

 19 19  0  0  0  0  0  0  0  0999 V2000
    1.9304   -1.0128   -1.6029 C   0  0  0  0  0  0  0  0  0  0  0  0
    1.8851   -1.0363   -0.1124 C   0  0  0  0  0  0  0  0  0  0  0  0
    2.9210   -1.6309    0.6081 C   0  0  0  0  0  0  0  0  0  0  0  0
    2.8783   -1.6520    2.0022 C   0  0  0  0  0  0  0  0  0  0  0  0
    1.7997   -1.0786    2.6757 C   0  0  0  0  0  0  0  0  0  0  0  0
    0.7638   -0.4841    1.9551 C   0  0  0  0  0  0  0  0  0  0  0  0
    0.8066   -0.4630    0.5610 C   0  0  0  0  0  0  0  0  0  0  0  0
   -0.2880    0.0763    2.6126 O   0  0  0  0  0  0  0  0  0  0  0  0
    3.9862   -2.2873    2.7723 C   0  0  0  0  0  0  0  0  0  0  0  0
    2.4383   -0.1071   -1.9478 H   0  0  0  0  0  0  0  0  0  0  0  0
    2.4628   -1.8872   -1.9916 H   0  0  0  0  0  0  0  0  0  0  0  0
    0.9201   -1.0349   -2.0250 H   0  0  0  0  0  0  0  0  0  0  0  0
    3.7619   -2.0777    0.0830 H   0  0  0  0  0  0  0  0  0  0  0  0
    1.7632   -1.0932    3.7622 H   0  0  0  0  0  0  0  0  0  0  0  0
   -0.0019    0.0017    0.0016 H   0  0  0  0  0  0  0  0  0  0  0  0
   -0.9224    0.4464    1.9783 H   0  0  0  0  0  0  0  0  0  0  0  0
    4.7661   -1.5499    2.9984 H   0  0  0  0  0  0  0  0  0  0  0  0
    3.6228   -2.7103    3.7178 H   0  0  0  0  0  0  0  0  0  0  0  0
    4.4407   -3.1128    2.2091 H   0  0  0  0  0  0  0  0  0  0  0  0
  1  2  1  0
  2  7  2  0
  2  3  1  0
  3  4  2  0
  4  5  1  0
  5  6  2  0
  6  7  1  0
  6  8  1  0
  4  9  1  0
  1 10  1  0
  1 11  1  0
  1 12  1  0
  3 13  1  0
  5 14  1  0
  7 15  1  0
  8 16  1  0
  9 17  1  0
  9 18  1  0
  9 19  1  0
M  END
>  <_TriposChargeType>  (454) 
USER_CHARGES

>  <solvdG>  (454) 
-6.27

>  <fdG>  (454) 
-5.44

>  <fname>  (454) 
mobley_7009711

>  <cname>  (454) 
 3,5-dimethylphenol

>  <dataset>  (454) 
FreeSolv

$$$$
cyclohexanol
     RDKit          3D

 19 19  0  0  0  0  0  0  0  0999 V2000
    0.8595   -0.5761   -0.3646 C   0  0  0  0  0  0  0  0  0  0  0  0
    1.9981   -0.4824    0.6484 C   0  0  0  0  0  0  0  0  0  0  0  0
    2.5549    0.9347    0.7374 C   0  0  0  0  0  0  0  0  0  0  0  0
    2.9750    1.4610   -0.6344 C   0  0  0  0  0  0  0  0  0  0  0  0
    1.8340    1.3679   -1.6464 C   0  0  0  0  0  0  0  0  0  0  0  0
    1.2772   -0.0492   -1.7356 C   0  0  0  0  0  0  0  0  0  0  0  0
    3.4005    2.8144   -0.5171 O   0  0  0  0  0  0  0  0  0  0  0  0
    0.0000   -0.0000    0.0001 H   0  0  0  0  0  0  0  0  0  0  0  0
    0.5301   -1.6173   -0.4541 H   0  0  0  0  0  0  0  0  0  0  0  0
    1.6426   -0.8026    1.6343 H   0  0  0  0  0  0  0  0  0  0  0  0
    2.8009   -1.1715    0.3584 H   0  0  0  0  0  0  0  0  0  0  0  0
    1.8026    1.6035    1.1761 H   0  0  0  0  0  0  0  0  0  0  0  0
    3.4104    0.9619    1.4230 H   0  0  0  0  0  0  0  0  0  0  0  0
    3.8350    0.8745   -0.9984 H   0  0  0  0  0  0  0  0  0  0  0  0
    1.0345    2.0666   -1.3668 H   0  0  0  0  0  0  0  0  0  0  0  0
    2.1833    1.6969   -2.6326 H   0  0  0  0  0  0  0  0  0  0  0  0
    0.4174   -0.0658   -2.4146 H   0  0  0  0  0  0  0  0  0  0  0  0
    2.0377   -0.7130   -2.1648 H   0  0  0  0  0  0  0  0  0  0  0  0
    3.6558    3.1036   -1.4073 H   0  0  0  0  0  0  0  0  0  0  0  0
  1  6  1  0
  1  2  1  0
  2  3  1  0
  3  4  1  0
  4  5  1  0
  5  6  1  0
  4  7  1  0
  1  8  1  0
  1  9  1  0
  2 10  1  0
  2 11  1  0
  3 12  1  0
  3 13  1  0
  4 14  1  0
  5 15  1  0
  5 16  1  0
  6 17  1  0
  6 18  1  0
  7 19  1  0
M  END
>  <_TriposChargeType>  (455) 
USER_CHARGES

>  <solvdG>  (455) 
-5.46

>  <fdG>  (455) 
-4.18

>  <fname>  (455) 
mobley_7010316

>  <cname>  (455) 
 cyclohexanol

>  <dataset>  (455) 
FreeSolv

$$$$
methoxymethane
     RDKit          3D

  9  8  0  0  0  0  0  0  0  0999 V2000
   -0.6104   -0.5152    0.7482 C   0  0  0  0  0  0  0  0  0  0  0  0
    0.0353   -0.4987    2.0141 O   0  0  0  0  0  0  0  0  0  0  0  0
    1.2893   -1.1660    1.9689 C   0  0  0  0  0  0  0  0  0  0  0  0
   -1.5686    0.0052    0.8203 H   0  0  0  0  0  0  0  0  0  0  0  0
   -0.7682   -1.5494    0.4320 H   0  0  0  0  0  0  0  0  0  0  0  0
    0.0241   -0.0060    0.0189 H   0  0  0  0  0  0  0  0  0  0  0  0
    1.7511   -1.1312    2.9567 H   0  0  0  0  0  0  0  0  0  0  0  0
    1.9304   -0.6778    1.2333 H   0  0  0  0  0  0  0  0  0  0  0  0
    1.1232   -2.2043    1.6787 H   0  0  0  0  0  0  0  0  0  0  0  0
  1  2  1  0
  2  3  1  0
  1  4  1  0
  1  5  1  0
  1  6  1  0
  3  7  1  0
  3  8  1  0
  3  9  1  0
M  END
>  <_TriposChargeType>  (456) 
USER_CHARGES

>  <solvdG>  (456) 
-1.91

>  <fdG>  (456) 
-0.85

>  <fname>  (456) 
mobley_7015518

>  <cname>  (456) 
 methoxymethane

>  <dataset>  (456) 
FreeSolv

$$$$
phenanthrene
     RDKit          3D

 24 26  0  0  0  0  0  0  0  0999 V2000
   -6.1104   -1.6946   -5.2170 C   0  0  0  0  0  0  0  0  0  0  0  0
   -5.3789   -2.7590   -4.7133 C   0  0  0  0  0  0  0  0  0  0  0  0
   -4.3284   -2.5248   -3.8220 C   0  0  0  0  0  0  0  0  0  0  0  0
   -3.9715   -1.2186   -3.4026 C   0  0  0  0  0  0  0  0  0  0  0  0
   -4.7367   -0.1476   -3.9338 C   0  0  0  0  0  0  0  0  0  0  0  0
   -5.7907   -0.3971   -4.8293 C   0  0  0  0  0  0  0  0  0  0  0  0
   -4.4437    1.1681   -3.5665 C   0  0  0  0  0  0  0  0  0  0  0  0
   -3.4069    1.4481   -2.6824 C   0  0  0  0  0  0  0  0  0  0  0  0
   -2.6316    0.4210   -2.1384 C   0  0  0  0  0  0  0  0  0  0  0  0
   -2.8985   -0.9287   -2.4872 C   0  0  0  0  0  0  0  0  0  0  0  0
   -2.0700   -1.9147   -1.8948 C   0  0  0  0  0  0  0  0  0  0  0  0
   -1.0390   -1.5865   -1.0103 C   0  0  0  0  0  0  0  0  0  0  0  0
   -0.7996   -0.2600   -0.6868 C   0  0  0  0  0  0  0  0  0  0  0  0
   -1.5914    0.7372   -1.2478 C   0  0  0  0  0  0  0  0  0  0  0  0
   -6.9275   -1.8711   -5.9098 H   0  0  0  0  0  0  0  0  0  0  0  0
   -5.6211   -3.7754   -5.0101 H   0  0  0  0  0  0  0  0  0  0  0  0
   -3.7904   -3.3974   -3.4607 H   0  0  0  0  0  0  0  0  0  0  0  0
   -6.3771    0.4249   -5.2360 H   0  0  0  0  0  0  0  0  0  0  0  0
   -5.0225    1.9986   -3.9661 H   0  0  0  0  0  0  0  0  0  0  0  0
   -3.2124    2.4877   -2.4244 H   0  0  0  0  0  0  0  0  0  0  0  0
   -2.2108   -2.9706   -2.1110 H   0  0  0  0  0  0  0  0  0  0  0  0
   -0.4264   -2.3719   -0.5774 H   0  0  0  0  0  0  0  0  0  0  0  0
    0.0003    0.0003   -0.0005 H   0  0  0  0  0  0  0  0  0  0  0  0
   -1.3874    1.7728   -0.9810 H   0  0  0  0  0  0  0  0  0  0  0  0
  1  6  2  0
  1  2  1  0
  2  3  2  0
  3  4  1  0
  4 10  1  0
  4  5  2  0
  5  6  1  0
  5  7  1  0
  7  8  2  0
  8  9  1  0
  9 14  1  0
  9 10  2  0
 10 11  1  0
 11 12  2  0
 12 13  1  0
 13 14  2  0
  1 15  1  0
  2 16  1  0
  3 17  1  0
  6 18  1  0
  7 19  1  0
  8 20  1  0
 11 21  1  0
 12 22  1  0
 13 23  1  0
 14 24  1  0
M  END
>  <_TriposChargeType>  (457) 
USER_CHARGES

>  <solvdG>  (457) 
-3.88

>  <fdG>  (457) 
-5.26

>  <fname>  (457) 
mobley_7017274

>  <cname>  (457) 
 phenanthrene

>  <dataset>  (457) 
FreeSolv

$$$$
naphthalen-1-ol
     RDKit          3D

 19 20  0  0  0  0  0  0  0  0999 V2000
   -0.4966   -2.0341    0.4940 C   0  0  0  0  0  0  0  0  0  0  0  0
    0.3500   -1.0275    0.0392 C   0  0  0  0  0  0  0  0  0  0  0  0
    1.6484   -1.3369   -0.3665 C   0  0  0  0  0  0  0  0  0  0  0  0
    2.1168   -2.6602   -0.3222 C   0  0  0  0  0  0  0  0  0  0  0  0
    1.2560   -3.6839    0.1403 C   0  0  0  0  0  0  0  0  0  0  0  0
   -0.0479   -3.3542    0.5448 C   0  0  0  0  0  0  0  0  0  0  0  0
    1.7243   -5.0072    0.1848 C   0  0  0  0  0  0  0  0  0  0  0  0
    3.0228   -5.3167   -0.2210 C   0  0  0  0  0  0  0  0  0  0  0  0
    3.8693   -4.3100   -0.6758 C   0  0  0  0  0  0  0  0  0  0  0  0
    3.4207   -2.9899   -0.7267 C   0  0  0  0  0  0  0  0  0  0  0  0
    4.2871   -2.0364   -1.1801 O   0  0  0  0  0  0  0  0  0  0  0  0
   -1.5073   -1.7925    0.8098 H   0  0  0  0  0  0  0  0  0  0  0  0
   -0.0002   -0.0000    0.0000 H   0  0  0  0  0  0  0  0  0  0  0  0
    2.2840   -0.5265   -0.7166 H   0  0  0  0  0  0  0  0  0  0  0  0
   -0.7269   -4.1249    0.9038 H   0  0  0  0  0  0  0  0  0  0  0  0
    1.0800   -5.8101    0.5368 H   0  0  0  0  0  0  0  0  0  0  0  0
    3.3726   -6.3442   -0.1817 H   0  0  0  0  0  0  0  0  0  0  0  0
    4.8792   -4.5596   -0.9901 H   0  0  0  0  0  0  0  0  0  0  0  0
    5.1352   -2.4429   -1.4130 H   0  0  0  0  0  0  0  0  0  0  0  0
  1  6  2  0
  1  2  1  0
  2  3  2  0
  3  4  1  0
  4 10  1  0
  4  5  2  0
  5  6  1  0
  5  7  1  0
  7  8  2  0
  8  9  1  0
  9 10  2  0
 10 11  1  0
  1 12  1  0
  2 13  1  0
  3 14  1  0
  6 15  1  0
  7 16  1  0
  8 17  1  0
  9 18  1  0
 11 19  1  0
M  END
>  <_TriposChargeType>  (458) 
USER_CHARGES

>  <solvdG>  (458) 
-7.67

>  <fdG>  (458) 
-7.14

>  <fname>  (458) 
mobley_7039935

>  <cname>  (458) 
 naphthalen-1-ol

>  <dataset>  (458) 
FreeSolv

$$$$
2-chloro-2-methyl-propane
     RDKit          3D

 14 13  0  0  0  0  0  0  0  0999 V2000
    0.7749    0.2118   -0.7456 C   0  0  0  0  0  0  0  0  0  0  0  0
    0.5635    1.5787   -1.3987 C   0  0  0  0  0  0  0  0  0  0  0  0
   -0.8097    1.6428   -2.0696 C   0  0  0  0  0  0  0  0  0  0  0  0
    1.6695    1.8600   -2.4175 C   0  0  0  0  0  0  0  0  0  0  0  0
    0.6327    2.8393   -0.1192 Cl  0  0  0  0  0  0  0  0  0  0  0  0
    1.7551    0.1473   -0.2591 H   0  0  0  0  0  0  0  0  0  0  0  0
    0.0105    0.0078    0.0129 H   0  0  0  0  0  0  0  0  0  0  0  0
    0.7226   -0.5901   -1.4905 H   0  0  0  0  0  0  0  0  0  0  0  0
   -0.9788    2.6166   -2.5436 H   0  0  0  0  0  0  0  0  0  0  0  0
   -0.9151    0.8719   -2.8415 H   0  0  0  0  0  0  0  0  0  0  0  0
   -1.6108    1.4885   -1.3379 H   0  0  0  0  0  0  0  0  0  0  0  0
    1.5341    2.8365   -2.8961 H   0  0  0  0  0  0  0  0  0  0  0  0
    1.6895    1.1002   -3.2070 H   0  0  0  0  0  0  0  0  0  0  0  0
    2.6542    1.8619   -1.9363 H   0  0  0  0  0  0  0  0  0  0  0  0
  1  2  1  0
  2  3  1  0
  2  4  1  0
  2  5  1  0
  1  6  1  0
  1  7  1  0
  1  8  1  0
  3  9  1  0
  3 10  1  0
  3 11  1  0
  4 12  1  0
  4 13  1  0
  4 14  1  0
M  END
>  <_TriposChargeType>  (459) 
USER_CHARGES

>  <solvdG>  (459) 
1.09

>  <fdG>  (459) 
0.83

>  <fname>  (459) 
mobley_7047032

>  <cname>  (459) 
 2-chloro-2-methyl-propane

>  <dataset>  (459) 
FreeSolv

$$$$
4-chlorophenol
     RDKit          3D

 13 13  0  0  0  0  0  0  0  0999 V2000
    1.8851   -1.0363   -0.1124 C   0  0  0  0  0  0  0  0  0  0  0  0
    2.9210   -1.6309    0.6081 C   0  0  0  0  0  0  0  0  0  0  0  0
    2.8783   -1.6520    2.0022 C   0  0  0  0  0  0  0  0  0  0  0  0
    1.7997   -1.0786    2.6757 C   0  0  0  0  0  0  0  0  0  0  0  0
    0.7638   -0.4841    1.9551 C   0  0  0  0  0  0  0  0  0  0  0  0
    0.8066   -0.4630    0.5610 C   0  0  0  0  0  0  0  0  0  0  0  0
   -0.2041    0.1171   -0.1422 O   0  0  0  0  0  0  0  0  0  0  0  0
    4.1571   -2.3840    2.8911 Cl  0  0  0  0  0  0  0  0  0  0  0  0
    1.9241   -1.0228   -1.1982 H   0  0  0  0  0  0  0  0  0  0  0  0
    3.7553   -2.0735    0.0699 H   0  0  0  0  0  0  0  0  0  0  0  0
    1.7531   -1.0876    3.7616 H   0  0  0  0  0  0  0  0  0  0  0  0
   -0.0738   -0.0392    2.4852 H   0  0  0  0  0  0  0  0  0  0  0  0
   -0.8764    0.4687    0.4630 H   0  0  0  0  0  0  0  0  0  0  0  0
  1  6  2  0
  1  2  1  0
  2  3  2  0
  3  4  1  0
  4  5  2  0
  5  6  1  0
  6  7  1  0
  3  8  1  0
  1  9  1  0
  2 10  1  0
  4 11  1  0
  5 12  1  0
  7 13  1  0
M  END
>  <_TriposChargeType>  (460) 
USER_CHARGES

>  <solvdG>  (460) 
-7.03

>  <fdG>  (460) 
-5.37

>  <fname>  (460) 
mobley_7066554

>  <cname>  (460) 
 4-chlorophenol

>  <dataset>  (460) 
FreeSolv

$$$$
3-chloroprop-1-ene
     RDKit          3D

  9  8  0  0  0  0  0  0  0  0999 V2000
   -0.3495    1.3198    0.4079 C   0  0  0  0  0  0  0  0  0  0  0  0
   -0.3587   -0.0178    0.4246 C   0  0  0  0  0  0  0  0  0  0  0  0
    0.3237   -0.8666   -0.5954 C   0  0  0  0  0  0  0  0  0  0  0  0
    1.5403   -1.8962    0.1888 Cl  0  0  0  0  0  0  0  0  0  0  0  0
   -0.8716    1.8824    1.1742 H   0  0  0  0  0  0  0  0  0  0  0  0
    0.1752    1.8742   -0.3623 H   0  0  0  0  0  0  0  0  0  0  0  0
   -0.9069   -0.5227    1.2161 H   0  0  0  0  0  0  0  0  0  0  0  0
   -0.4020   -1.5182   -1.0906 H   0  0  0  0  0  0  0  0  0  0  0  0
    0.8324   -0.2722   -1.3603 H   0  0  0  0  0  0  0  0  0  0  0  0
  1  2  2  3
  2  3  1  0
  3  4  1  0
  1  5  1  0
  1  6  1  0
  2  7  1  0
  3  8  1  0
  3  9  1  0
M  END
>  <_TriposChargeType>  (461) 
USER_CHARGES

>  <solvdG>  (461) 
-0.57

>  <fdG>  (461) 
0.94

>  <fname>  (461) 
mobley_7099614

>  <cname>  (461) 
 3-chloroprop-1-ene

>  <dataset>  (461) 
FreeSolv

$$$$
2-methylpentane
     RDKit          3D

 20 19  0  0  0  0  0  0  0  0999 V2000
    0.7499   -0.2574   -0.6070 C   0  0  0  0  0  0  0  0  0  0  0  0
    0.8430    0.4612   -1.9447 C   0  0  0  0  0  0  0  0  0  0  0  0
    0.8300    1.9809   -1.7632 C   0  0  0  0  0  0  0  0  0  0  0  0
    0.9223    2.7580   -3.0895 C   0  0  0  0  0  0  0  0  0  0  0  0
    2.2230    2.3984   -3.8121 C   0  0  0  0  0  0  0  0  0  0  0  0
    0.8472    4.2720   -2.8863 C   0  0  0  0  0  0  0  0  0  0  0  0
    0.7596   -1.3436   -0.7431 H   0  0  0  0  0  0  0  0  0  0  0  0
    1.5868    0.0156    0.0436 H   0  0  0  0  0  0  0  0  0  0  0  0
   -0.1798    0.0120   -0.0961 H   0  0  0  0  0  0  0  0  0  0  0  0
    1.7636    0.1542   -2.4540 H   0  0  0  0  0  0  0  0  0  0  0  0
    0.0013    0.1441   -2.5694 H   0  0  0  0  0  0  0  0  0  0  0  0
   -0.0790    2.2753   -1.2230 H   0  0  0  0  0  0  0  0  0  0  0  0
    1.6784    2.2658   -1.1276 H   0  0  0  0  0  0  0  0  0  0  0  0
    0.0863    2.4562   -3.7332 H   0  0  0  0  0  0  0  0  0  0  0  0
    2.3058    2.9426   -4.7589 H   0  0  0  0  0  0  0  0  0  0  0  0
    2.2728    1.3263   -4.0312 H   0  0  0  0  0  0  0  0  0  0  0  0
    3.0934    2.6605   -3.2012 H   0  0  0  0  0  0  0  0  0  0  0  0
    0.9146    4.8046   -3.8410 H   0  0  0  0  0  0  0  0  0  0  0  0
   -0.0978    4.5531   -2.4089 H   0  0  0  0  0  0  0  0  0  0  0  0
    1.6540    4.6279   -2.2386 H   0  0  0  0  0  0  0  0  0  0  0  0
  1  2  1  0
  2  3  1  0
  3  4  1  0
  4  5  1  0
  4  6  1  0
  1  7  1  0
  1  8  1  0
  1  9  1  0
  2 10  1  0
  2 11  1  0
  3 12  1  0
  3 13  1  0
  4 14  1  0
  5 15  1  0
  5 16  1  0
  5 17  1  0
  6 18  1  0
  6 19  1  0
  6 20  1  0
M  END
>  <_TriposChargeType>  (462) 
USER_CHARGES

>  <solvdG>  (462) 
2.51

>  <fdG>  (462) 
2.81

>  <fname>  (462) 
mobley_7106722

>  <cname>  (462) 
 isohexane

>  <dataset>  (462) 
FreeSolv

$$$$
pentan-1-amine
     RDKit          3D

 19 18  0  0  0  0  0  0  0  0999 V2000
   -0.0033   -0.6405    0.8880 C   0  0  0  0  0  0  0  0  0  0  0  0
    1.2685   -0.4528    1.6997 C   0  0  0  0  0  0  0  0  0  0  0  0
    2.5112   -0.8072    0.8834 C   0  0  0  0  0  0  0  0  0  0  0  0
    3.7878   -0.6173    1.7026 C   0  0  0  0  0  0  0  0  0  0  0  0
    5.0269   -0.9707    0.8888 C   0  0  0  0  0  0  0  0  0  0  0  0
    6.2303   -0.7938    1.6547 N   0  0  0  0  0  0  0  0  0  0  0  0
   -0.8794   -0.3814    1.4908 H   0  0  0  0  0  0  0  0  0  0  0  0
   -0.0004    0.0001    0.0003 H   0  0  0  0  0  0  0  0  0  0  0  0
   -0.1107   -1.6798    0.5618 H   0  0  0  0  0  0  0  0  0  0  0  0
    1.2193   -1.0824    2.5957 H   0  0  0  0  0  0  0  0  0  0  0  0
    1.3292    0.5884    2.0375 H   0  0  0  0  0  0  0  0  0  0  0  0
    2.5534   -0.1776   -0.0138 H   0  0  0  0  0  0  0  0  0  0  0  0
    2.4435   -1.8482    0.5444 H   0  0  0  0  0  0  0  0  0  0  0  0
    3.7485   -1.2431    2.6030 H   0  0  0  0  0  0  0  0  0  0  0  0
    3.8569    0.4224    2.0464 H   0  0  0  0  0  0  0  0  0  0  0  0
    5.1089   -0.3354    0.0013 H   0  0  0  0  0  0  0  0  0  0  0  0
    4.9957   -2.0161    0.5655 H   0  0  0  0  0  0  0  0  0  0  0  0
    6.5320   -1.5296    2.2739 H   0  0  0  0  0  0  0  0  0  0  0  0
    6.6406    0.1245    1.7210 H   0  0  0  0  0  0  0  0  0  0  0  0
  1  2  1  0
  2  3  1  0
  3  4  1  0
  4  5  1  0
  5  6  1  0
  1  7  1  0
  1  8  1  0
  1  9  1  0
  2 10  1  0
  2 11  1  0
  3 12  1  0
  3 13  1  0
  4 14  1  0
  4 15  1  0
  5 16  1  0
  5 17  1  0
  6 18  1  0
  6 19  1  0
M  END
>  <_TriposChargeType>  (463) 
USER_CHARGES

>  <solvdG>  (463) 
-4.09

>  <fdG>  (463) 
-2.83

>  <fname>  (463) 
mobley_7142697

>  <cname>  (463) 
 pentan-1-amine

>  <dataset>  (463) 
FreeSolv

$$$$
1,4-dibromobenzene
     RDKit          3D

 12 12  0  0  0  0  0  0  0  0999 V2000
    1.8851   -1.0363   -0.1124 C   0  0  0  0  0  0  0  0  0  0  0  0
    2.9210   -1.6309    0.6081 C   0  0  0  0  0  0  0  0  0  0  0  0
    2.8783   -1.6520    2.0022 C   0  0  0  0  0  0  0  0  0  0  0  0
    1.7997   -1.0786    2.6757 C   0  0  0  0  0  0  0  0  0  0  0  0
    0.7638   -0.4841    1.9551 C   0  0  0  0  0  0  0  0  0  0  0  0
    0.8066   -0.4630    0.5610 C   0  0  0  0  0  0  0  0  0  0  0  0
   -0.5965    0.3430   -0.4154 Br  0  0  0  0  0  0  0  0  0  0  0  0
    4.2818   -2.4575    2.9784 Br  0  0  0  0  0  0  0  0  0  0  0  0
    1.9330   -1.0282   -1.1982 H   0  0  0  0  0  0  0  0  0  0  0  0
    3.7545   -2.0731    0.0687 H   0  0  0  0  0  0  0  0  0  0  0  0
    1.7516   -1.0871    3.7615 H   0  0  0  0  0  0  0  0  0  0  0  0
   -0.0695   -0.0417    2.4944 H   0  0  0  0  0  0  0  0  0  0  0  0
  1  6  2  0
  1  2  1  0
  2  3  2  0
  3  4  1  0
  4  5  2  0
  5  6  1  0
  6  7  1  0
  3  8  1  0
  1  9  1  0
  2 10  1  0
  4 11  1  0
  5 12  1  0
M  END
>  <_TriposChargeType>  (464) 
USER_CHARGES

>  <solvdG>  (464) 
-2.3

>  <fdG>  (464) 
-1.09

>  <fname>  (464) 
mobley_7150646

>  <cname>  (464) 
 1,4-dibromobenzene

>  <dataset>  (464) 
FreeSolv

$$$$
1-chloroheptane
     RDKit          3D

 23 22  0  0  0  0  0  0  0  0999 V2000
   -3.6203    0.6141    0.4882 C   0  0  0  0  0  0  0  0  0  0  0  0
   -2.1426    0.7079    0.8334 C   0  0  0  0  0  0  0  0  0  0  0  0
   -1.2698    0.1231   -0.2770 C   0  0  0  0  0  0  0  0  0  0  0  0
    0.2167    0.2192    0.0740 C   0  0  0  0  0  0  0  0  0  0  0  0
    1.0874   -0.3672   -1.0397 C   0  0  0  0  0  0  0  0  0  0  0  0
    2.5876   -0.2964   -0.7396 C   0  0  0  0  0  0  0  0  0  0  0  0
    3.4491   -0.8815   -1.8516 C   0  0  0  0  0  0  0  0  0  0  0  0
    5.1734   -0.7607   -1.4255 Cl  0  0  0  0  0  0  0  0  0  0  0  0
   -4.2260    1.0378    1.2954 H   0  0  0  0  0  0  0  0  0  0  0  0
   -3.8443    1.1659   -0.4302 H   0  0  0  0  0  0  0  0  0  0  0  0
   -3.9244   -0.4278    0.3459 H   0  0  0  0  0  0  0  0  0  0  0  0
   -1.9583    0.1736    1.7726 H   0  0  0  0  0  0  0  0  0  0  0  0
   -1.8784    1.7585    1.0005 H   0  0  0  0  0  0  0  0  0  0  0  0
   -1.4619    0.6584   -1.2149 H   0  0  0  0  0  0  0  0  0  0  0  0
   -1.5404   -0.9270   -0.4428 H   0  0  0  0  0  0  0  0  0  0  0  0
    0.3977   -0.3150    1.0134 H   0  0  0  0  0  0  0  0  0  0  0  0
    0.4877    1.2691    0.2385 H   0  0  0  0  0  0  0  0  0  0  0  0
    0.8986    0.1842   -1.9694 H   0  0  0  0  0  0  0  0  0  0  0  0
    0.7988   -1.4088   -1.2265 H   0  0  0  0  0  0  0  0  0  0  0  0
    2.8542    0.7578   -0.5905 H   0  0  0  0  0  0  0  0  0  0  0  0
    2.7959   -0.8113    0.2065 H   0  0  0  0  0  0  0  0  0  0  0  0
    3.2324   -1.9401   -2.0161 H   0  0  0  0  0  0  0  0  0  0  0  0
    3.3014   -0.3422   -2.7919 H   0  0  0  0  0  0  0  0  0  0  0  0
  1  2  1  0
  2  3  1  0
  3  4  1  0
  4  5  1  0
  5  6  1  0
  6  7  1  0
  7  8  1  0
  1  9  1  0
  1 10  1  0
  1 11  1  0
  2 12  1  0
  2 13  1  0
  3 14  1  0
  3 15  1  0
  4 16  1  0
  4 17  1  0
  5 18  1  0
  5 19  1  0
  6 20  1  0
  6 21  1  0
  7 22  1  0
  7 23  1  0
M  END
>  <_TriposChargeType>  (465) 
USER_CHARGES

>  <solvdG>  (465) 
0.29

>  <fdG>  (465) 
1.47

>  <fname>  (465) 
mobley_7157427

>  <cname>  (465) 
 1-chloroheptane

>  <dataset>  (465) 
FreeSolv

$$$$
2,6-dinitro-N,N-dipropyl-4-(trifluoromethyl)aniline
     RDKit          3D

 39 39  0  0  0  0  0  0  0  0999 V2000
    3.4481    3.6057   -0.0289 C   0  0  0  0  0  0  0  0  0  0  0  0
    3.6344    2.8445   -1.3338 C   0  0  0  0  0  0  0  0  0  0  0  0
    2.6189    1.7221   -1.5111 C   0  0  0  0  0  0  0  0  0  0  0  0
    2.8015    1.0088   -2.7448 N   0  0  0  0  0  0  0  0  0  0  0  0
    2.7100    1.7478   -4.0090 C   0  0  0  0  0  0  0  0  0  0  0  0
    1.3463    2.3797   -4.1792 C   0  0  0  0  0  0  0  0  0  0  0  0
    1.2058    3.1582   -5.4796 C   0  0  0  0  0  0  0  0  0  0  0  0
    3.0768   -0.3694   -2.7666 C   0  0  0  0  0  0  0  0  0  0  0  0
    2.0293   -1.2892   -2.8160 C   0  0  0  0  0  0  0  0  0  0  0  0
    2.3025   -2.6568   -2.8375 C   0  0  0  0  0  0  0  0  0  0  0  0
    3.6232   -3.1047   -2.8095 C   0  0  0  0  0  0  0  0  0  0  0  0
    4.6707   -2.1849   -2.7601 C   0  0  0  0  0  0  0  0  0  0  0  0
    4.3975   -0.8172   -2.7386 C   0  0  0  0  0  0  0  0  0  0  0  0
    5.4869    0.0977   -2.6883 N   0  0  0  0  0  4  0  0  0  0  0  0
    5.9183    0.4629   -1.5700 O   0  0  0  0  0  0  0  0  0  0  0  0
    5.9805    0.5096   -3.7639 O   0  0  0  0  0  1  0  0  0  0  0  0
    3.9154   -4.5671   -2.8329 C   0  0  0  0  0  0  0  0  0  0  0  0
    2.7960   -5.3484   -2.8818 F   0  0  0  0  0  0  0  0  0  0  0  0
    4.6686   -4.9570   -3.9036 F   0  0  0  0  0  0  0  0  0  0  0  0
    4.6039   -4.9827   -1.7301 F   0  0  0  0  0  0  0  0  0  0  0  0
    0.6716   -0.8624   -2.8461 N   0  0  0  0  0  4  0  0  0  0  0  0
    0.1266   -0.6582   -3.9558 O   0  0  0  0  0  0  0  0  0  0  0  0
    0.0636   -0.7040   -1.7619 O   0  0  0  0  0  1  0  0  0  0  0  0
    4.1909    4.4038    0.0690 H   0  0  0  0  0  0  0  0  0  0  0  0
    2.4540    4.0632    0.0016 H   0  0  0  0  0  0  0  0  0  0  0  0
    3.5385    2.9421    0.8366 H   0  0  0  0  0  0  0  0  0  0  0  0
    4.6428    2.4150   -1.3478 H   0  0  0  0  0  0  0  0  0  0  0  0
    3.5692    3.5471   -2.1730 H   0  0  0  0  0  0  0  0  0  0  0  0
    2.7219    0.9926   -0.7016 H   0  0  0  0  0  0  0  0  0  0  0  0
    1.5943    2.1068   -1.4947 H   0  0  0  0  0  0  0  0  0  0  0  0
    2.9059    1.0157   -4.7869 H   0  0  0  0  0  0  0  0  0  0  0  0
    3.5113    2.4801   -3.9925 H   0  0  0  0  0  0  0  0  0  0  0  0
    0.6013    1.5756   -4.1701 H   0  0  0  0  0  0  0  0  0  0  0  0
    1.1186    3.0427   -3.3361 H   0  0  0  0  0  0  0  0  0  0  0  0
    0.2078    3.5996   -5.5665 H   0  0  0  0  0  0  0  0  0  0  0  0
    1.9391    3.9703   -5.5134 H   0  0  0  0  0  0  0  0  0  0  0  0
    1.3759    2.5162   -6.3494 H   0  0  0  0  0  0  0  0  0  0  0  0
    1.4895   -3.3791   -2.8772 H   0  0  0  0  0  0  0  0  0  0  0  0
    5.6990   -2.5402   -2.7370 H   0  0  0  0  0  0  0  0  0  0  0  0
  1  2  1  0
  2  3  1  0
  3  4  1  0
  4  5  1  0
  5  6  1  0
  6  7  1  0
  4  8  1  0
  8 13  2  0
  8  9  1  0
  9 10  2  0
 10 11  1  0
 11 12  2  0
 12 13  1  0
 13 14  1  0
 14 15  2  0
 14 16  1  0
 11 17  1  0
 17 18  1  0
 17 19  1  0
 17 20  1  0
  9 21  1  0
 21 22  2  0
 21 23  1  0
  1 24  1  0
  1 25  1  0
  1 26  1  0
  2 27  1  0
  2 28  1  0
  3 29  1  0
  3 30  1  0
  5 31  1  0
  5 32  1  0
  6 33  1  0
  6 34  1  0
  7 35  1  0
  7 36  1  0
  7 37  1  0
 10 38  1  0
 12 39  1  0
M  CHG  4  14   1  16  -1  21   1  23  -1
M  END
>  <_TriposChargeType>  (466) 
USER_CHARGES

>  <solvdG>  (466) 
-3.25

>  <fdG>  (466) 
-2.02

>  <fname>  (466) 
mobley_7176248

>  <cname>  (466) 
 trifluralin

>  <dataset>  (466) 
FreeSolv

$$$$
3-nitrophenol
     RDKit          3D

 15 15  0  0  0  0  0  0  0  0999 V2000
    1.8851   -1.0363   -0.1124 C   0  0  0  0  0  0  0  0  0  0  0  0
    2.9210   -1.6309    0.6081 C   0  0  0  0  0  0  0  0  0  0  0  0
    2.8783   -1.6520    2.0022 C   0  0  0  0  0  0  0  0  0  0  0  0
    1.7997   -1.0786    2.6757 C   0  0  0  0  0  0  0  0  0  0  0  0
    0.7638   -0.4841    1.9551 C   0  0  0  0  0  0  0  0  0  0  0  0
    0.8066   -0.4630    0.5610 C   0  0  0  0  0  0  0  0  0  0  0  0
   -0.2893    0.0750    2.6115 O   0  0  0  0  0  0  0  0  0  0  0  0
    3.9329   -2.2572    2.7357 N   0  0  0  0  0  4  0  0  0  0  0  0
    3.8750   -2.2653    3.9891 O   0  0  0  0  0  0  0  0  0  0  0  0
    4.8937   -2.7672    2.1104 O   0  0  0  0  0  1  0  0  0  0  0  0
    1.9186   -1.0195   -1.1979 H   0  0  0  0  0  0  0  0  0  0  0  0
    3.7558   -2.0743    0.0706 H   0  0  0  0  0  0  0  0  0  0  0  0
    1.7601   -1.0907    3.7627 H   0  0  0  0  0  0  0  0  0  0  0  0
    0.0025   -0.0014   -0.0056 H   0  0  0  0  0  0  0  0  0  0  0  0
   -0.9232    0.4452    1.9766 H   0  0  0  0  0  0  0  0  0  0  0  0
  1  6  2  0
  1  2  1  0
  2  3  2  0
  3  4  1  0
  4  5  2  0
  5  6  1  0
  5  7  1  0
  3  8  1  0
  8  9  2  0
  8 10  1  0
  1 11  1  0
  2 12  1  0
  4 13  1  0
  6 14  1  0
  7 15  1  0
M  CHG  2   8   1  10  -1
M  END
>  <_TriposChargeType>  (467) 
USER_CHARGES

>  <solvdG>  (467) 
-9.62

>  <fdG>  (467) 
-7.89

>  <fname>  (467) 
mobley_7176290

>  <cname>  (467) 
 3-nitrophenol

>  <dataset>  (467) 
FreeSolv

$$$$
heptan-1-amine
     RDKit          3D

 25 24  0  0  0  0  0  0  0  0999 V2000
    0.6869   -0.7196    0.0945 C   0  0  0  0  0  0  0  0  0  0  0  0
    0.1581   -2.1002   -0.2607 C   0  0  0  0  0  0  0  0  0  0  0  0
   -0.2982   -2.1672   -1.7189 C   0  0  0  0  0  0  0  0  0  0  0  0
   -0.8290   -3.5588   -2.0696 C   0  0  0  0  0  0  0  0  0  0  0  0
   -1.3010   -3.6830   -3.5212 C   0  0  0  0  0  0  0  0  0  0  0  0
   -1.8321   -5.0752   -3.8723 C   0  0  0  0  0  0  0  0  0  0  0  0
   -2.2871   -5.1382   -5.3303 C   0  0  0  0  0  0  0  0  0  0  0  0
   -2.7894   -6.4700   -5.6469 N   0  0  0  0  0  0  0  0  0  0  0  0
    1.0111   -0.6809    1.1394 H   0  0  0  0  0  0  0  0  0  0  0  0
    1.5376   -0.4500   -0.5396 H   0  0  0  0  0  0  0  0  0  0  0  0
   -0.0946    0.0335   -0.0470 H   0  0  0  0  0  0  0  0  0  0  0  0
    0.9444   -2.8426   -0.0816 H   0  0  0  0  0  0  0  0  0  0  0  0
   -0.6790   -2.3467    0.4029 H   0  0  0  0  0  0  0  0  0  0  0  0
    0.5416   -1.9167   -2.3781 H   0  0  0  0  0  0  0  0  0  0  0  0
   -1.0774   -1.4148   -1.8843 H   0  0  0  0  0  0  0  0  0  0  0  0
   -0.0338   -4.2967   -1.9055 H   0  0  0  0  0  0  0  0  0  0  0  0
   -1.6498   -3.8242   -1.3921 H   0  0  0  0  0  0  0  0  0  0  0  0
   -2.0729   -2.9303   -3.7226 H   0  0  0  0  0  0  0  0  0  0  0  0
   -0.4528   -3.4482   -4.1765 H   0  0  0  0  0  0  0  0  0  0  0  0
   -1.0470   -5.8211   -3.6952 H   0  0  0  0  0  0  0  0  0  0  0  0
   -2.6753   -5.3294   -3.2195 H   0  0  0  0  0  0  0  0  0  0  0  0
   -3.0813   -4.4054   -5.5087 H   0  0  0  0  0  0  0  0  0  0  0  0
   -1.4534   -4.8969   -5.9989 H   0  0  0  0  0  0  0  0  0  0  0  0
   -3.7355   -6.6848   -5.4129 H   0  0  0  0  0  0  0  0  0  0  0  0
   -2.1288   -7.1764   -5.8931 H   0  0  0  0  0  0  0  0  0  0  0  0
  1  2  1  0
  2  3  1  0
  3  4  1  0
  4  5  1  0
  5  6  1  0
  6  7  1  0
  7  8  1  0
  1  9  1  0
  1 10  1  0
  1 11  1  0
  2 12  1  0
  2 13  1  0
  3 14  1  0
  3 15  1  0
  4 16  1  0
  4 17  1  0
  5 18  1  0
  5 19  1  0
  6 20  1  0
  6 21  1  0
  7 22  1  0
  7 23  1  0
  8 24  1  0
  8 25  1  0
M  END
>  <_TriposChargeType>  (468) 
USER_CHARGES

>  <solvdG>  (468) 
-3.79

>  <fdG>  (468) 
-2.55

>  <fname>  (468) 
mobley_718988

>  <cname>  (468) 
 heptan-1-amine

>  <dataset>  (468) 
FreeSolv

$$$$
2-fluorophenol
     RDKit          3D

 13 13  0  0  0  0  0  0  0  0999 V2000
    1.8851   -1.0363   -0.1124 C   0  0  0  0  0  0  0  0  0  0  0  0
    2.9210   -1.6309    0.6081 C   0  0  0  0  0  0  0  0  0  0  0  0
    2.8783   -1.6520    2.0022 C   0  0  0  0  0  0  0  0  0  0  0  0
    1.7997   -1.0786    2.6757 C   0  0  0  0  0  0  0  0  0  0  0  0
    0.7638   -0.4841    1.9551 C   0  0  0  0  0  0  0  0  0  0  0  0
    0.8066   -0.4630    0.5610 C   0  0  0  0  0  0  0  0  0  0  0  0
   -0.2894    0.0756    2.6112 O   0  0  0  0  0  0  0  0  0  0  0  0
    1.7645   -1.1020    4.0152 F   0  0  0  0  0  0  0  0  0  0  0  0
    1.9177   -1.0204   -1.1981 H   0  0  0  0  0  0  0  0  0  0  0  0
    3.7609   -2.0769    0.0835 H   0  0  0  0  0  0  0  0  0  0  0  0
    3.6849   -2.1144    2.5634 H   0  0  0  0  0  0  0  0  0  0  0  0
    0.0026   -0.0018   -0.0060 H   0  0  0  0  0  0  0  0  0  0  0  0
   -0.1759   -0.0178    3.5704 H   0  0  0  0  0  0  0  0  0  0  0  0
  1  6  2  0
  1  2  1  0
  2  3  2  0
  3  4  1  0
  4  5  2  0
  5  6  1  0
  5  7  1  0
  4  8  1  0
  1  9  1  0
  2 10  1  0
  3 11  1  0
  6 12  1  0
  7 13  1  0
M  END
>  <_TriposChargeType>  (469) 
USER_CHARGES

>  <solvdG>  (469) 
-5.29

>  <fdG>  (469) 
-3.35

>  <fname>  (469) 
mobley_7200804

>  <cname>  (469) 
 2-fluorophenol

>  <dataset>  (469) 
FreeSolv

$$$$
hexanamide
     RDKit          3D

 21 20  0  0  0  0  0  0  0  0999 V2000
    1.0697   -0.0693   -0.2232 C   0  0  0  0  0  0  0  0  0  0  0  0
    1.4104    0.7803   -1.4372 C   0  0  0  0  0  0  0  0  0  0  0  0
    2.8894    0.6630   -1.8063 C   0  0  0  0  0  0  0  0  0  0  0  0
    3.2250    1.5213   -3.0298 C   0  0  0  0  0  0  0  0  0  0  0  0
    4.6983    1.4241   -3.4225 C   0  0  0  0  0  0  0  0  0  0  0  0
    5.0628    2.2640   -4.6325 C   0  0  0  0  0  0  0  0  0  0  0  0
    4.2592    2.9453   -5.2623 O   0  0  0  0  0  0  0  0  0  0  0  0
    6.3969    2.1561   -4.9627 N   0  0  0  0  0  0  0  0  0  0  0  0
    0.0096    0.0204    0.0340 H   0  0  0  0  0  0  0  0  0  0  0  0
    1.6577    0.2527    0.6420 H   0  0  0  0  0  0  0  0  0  0  0  0
    1.2901   -1.1252   -0.4097 H   0  0  0  0  0  0  0  0  0  0  0  0
    1.1613    1.8265   -1.2251 H   0  0  0  0  0  0  0  0  0  0  0  0
    0.7890    0.4639   -2.2831 H   0  0  0  0  0  0  0  0  0  0  0  0
    3.1320   -0.3858   -2.0170 H   0  0  0  0  0  0  0  0  0  0  0  0
    3.5026    0.9693   -0.9510 H   0  0  0  0  0  0  0  0  0  0  0  0
    2.9502    2.5658   -2.8390 H   0  0  0  0  0  0  0  0  0  0  0  0
    2.6173    1.1817   -3.8777 H   0  0  0  0  0  0  0  0  0  0  0  0
    4.9291    0.3820   -3.6758 H   0  0  0  0  0  0  0  0  0  0  0  0
    5.3372    1.7076   -2.5778 H   0  0  0  0  0  0  0  0  0  0  0  0
    6.7811    2.6639   -5.7526 H   0  0  0  0  0  0  0  0  0  0  0  0
    7.0409    1.5726   -4.4383 H   0  0  0  0  0  0  0  0  0  0  0  0
  1  2  1  0
  2  3  1  0
  3  4  1  0
  4  5  1  0
  5  6  1  0
  6  7  2  0
  6  8  1  0
  1  9  1  0
  1 10  1  0
  1 11  1  0
  2 12  1  0
  2 13  1  0
  3 14  1  0
  3 15  1  0
  4 16  1  0
  4 17  1  0
  5 18  1  0
  5 19  1  0
  8 20  1  0
  8 21  1  0
M  END
>  <_TriposChargeType>  (470) 
USER_CHARGES

>  <solvdG>  (470) 
-9.31

>  <fdG>  (470) 
-8.1

>  <fname>  (470) 
mobley_7203421

>  <cname>  (470) 
 hexanamide

>  <dataset>  (470) 
FreeSolv

$$$$
pentan-3-ol
     RDKit          3D

 18 17  0  0  0  0  0  0  0  0999 V2000
   -0.2573    0.9723    0.2434 C   0  0  0  0  0  0  0  0  0  0  0  0
   -0.4534    1.2393    1.7303 C   0  0  0  0  0  0  0  0  0  0  0  0
   -1.5325    0.3415    2.3459 C   0  0  0  0  0  0  0  0  0  0  0  0
   -1.6986    0.6411    3.8403 C   0  0  0  0  0  0  0  0  0  0  0  0
   -2.7615   -0.2258    4.5026 C   0  0  0  0  0  0  0  0  0  0  0  0
   -1.1462   -1.0186    2.1649 O   0  0  0  0  0  0  0  0  0  0  0  0
    0.5191    1.6312   -0.1583 H   0  0  0  0  0  0  0  0  0  0  0  0
    0.0522   -0.0614    0.0606 H   0  0  0  0  0  0  0  0  0  0  0  0
   -1.1815    1.1590   -0.3127 H   0  0  0  0  0  0  0  0  0  0  0  0
    0.5048    1.0712    2.2371 H   0  0  0  0  0  0  0  0  0  0  0  0
   -0.7213    2.2932    1.8683 H   0  0  0  0  0  0  0  0  0  0  0  0
   -2.4821    0.4995    1.8209 H   0  0  0  0  0  0  0  0  0  0  0  0
   -0.7479    0.4744    4.3612 H   0  0  0  0  0  0  0  0  0  0  0  0
   -1.9711    1.6940    3.9777 H   0  0  0  0  0  0  0  0  0  0  0  0
   -2.8422    0.0251    5.5652 H   0  0  0  0  0  0  0  0  0  0  0  0
   -3.7412   -0.0658    4.0413 H   0  0  0  0  0  0  0  0  0  0  0  0
   -2.5140   -1.2891    4.4304 H   0  0  0  0  0  0  0  0  0  0  0  0
   -0.2958   -1.1267    2.6182 H   0  0  0  0  0  0  0  0  0  0  0  0
  1  2  1  0
  2  3  1  0
  3  4  1  0
  4  5  1  0
  3  6  1  0
  1  7  1  0
  1  8  1  0
  1  9  1  0
  2 10  1  0
  2 11  1  0
  3 12  1  0
  4 13  1  0
  4 14  1  0
  5 15  1  0
  5 16  1  0
  5 17  1  0
  6 18  1  0
M  END
>  <_TriposChargeType>  (471) 
USER_CHARGES

>  <solvdG>  (471) 
-4.35

>  <fdG>  (471) 
-2.79

>  <fname>  (471) 
mobley_7227357

>  <cname>  (471) 
 pentan-3-ol

>  <dataset>  (471) 
FreeSolv

$$$$
1-chlorodibenzo-p-dioxin
     RDKit          3D

 22 24  0  0  0  0  0  0  0  0999 V2000
   -1.8584    0.7400    0.8000 C   0  0  0  0  0  0  0  0  0  0  0  0
   -1.0039   -0.2568    0.3257 C   0  0  0  0  0  0  0  0  0  0  0  0
   -1.4367   -1.5819    0.2693 C   0  0  0  0  0  0  0  0  0  0  0  0
   -2.7266   -1.9051    0.6889 C   0  0  0  0  0  0  0  0  0  0  0  0
   -3.5799   -0.9097    1.1626 C   0  0  0  0  0  0  0  0  0  0  0  0
   -3.1487    0.4152    1.2196 C   0  0  0  0  0  0  0  0  0  0  0  0
   -4.8561   -1.1828    1.5855 O   0  0  0  0  0  0  0  0  0  0  0  0
   -5.2389   -2.4982    1.5123 C   0  0  0  0  0  0  0  0  0  0  0  0
   -6.5287   -2.8214    1.9320 C   0  0  0  0  0  0  0  0  0  0  0  0
   -6.9616   -4.1465    1.8755 C   0  0  0  0  0  0  0  0  0  0  0  0
   -6.1071   -5.1433    1.4010 C   0  0  0  0  0  0  0  0  0  0  0  0
   -4.8168   -4.8184    0.9815 C   0  0  0  0  0  0  0  0  0  0  0  0
   -4.3856   -3.4936    1.0385 C   0  0  0  0  0  0  0  0  0  0  0  0
   -3.1093   -3.2205    0.6157 O   0  0  0  0  0  0  0  0  0  0  0  0
   -3.7901   -6.0785    0.4013 Cl  0  0  0  0  0  0  0  0  0  0  0  0
   -1.5175    1.7706    0.8425 H   0  0  0  0  0  0  0  0  0  0  0  0
    0.0000   -0.0001    0.0001 H   0  0  0  0  0  0  0  0  0  0  0  0
   -0.7663   -2.3523   -0.1008 H   0  0  0  0  0  0  0  0  0  0  0  0
   -3.8082    1.1963    1.5873 H   0  0  0  0  0  0  0  0  0  0  0  0
   -7.1995   -2.0508    2.3017 H   0  0  0  0  0  0  0  0  0  0  0  0
   -7.9656   -4.4030    2.2010 H   0  0  0  0  0  0  0  0  0  0  0  0
   -6.4633   -6.1698    1.3647 H   0  0  0  0  0  0  0  0  0  0  0  0
  1  6  2  0
  1  2  1  0
  2  3  2  0
  3  4  1  0
  4 14  1  0
  4  5  2  0
  5  6  1  0
  5  7  1  0
  7  8  1  0
  8 13  2  0
  8  9  1  0
  9 10  2  0
 10 11  1  0
 11 12  2  0
 12 13  1  0
 13 14  1  0
 12 15  1  0
  1 16  1  0
  2 17  1  0
  3 18  1  0
  6 19  1  0
  9 20  1  0
 10 21  1  0
 11 22  1  0
M  END
>  <_TriposChargeType>  (472) 
USER_CHARGES

>  <solvdG>  (472) 
-3.52

>  <fdG>  (472) 
-4.47

>  <fname>  (472) 
mobley_7239499

>  <cname>  (472) 
 1-chlorodibenzo-p-dioxin

>  <dataset>  (472) 
FreeSolv

$$$$
hydrazine
     RDKit          3D

  6  5  0  0  0  0  0  0  0  0999 V2000
   -0.8077    0.5696   -0.2485 N   0  0  0  0  0  0  0  0  0  0  0  0
   -1.9600   -0.2578   -0.3168 N   0  0  0  0  0  0  0  0  0  0  0  0
   -0.9050    1.2118    0.5366 H   0  0  0  0  0  0  0  0  0  0  0  0
    0.0076   -0.0069   -0.0444 H   0  0  0  0  0  0  0  0  0  0  0  0
   -2.7887    0.3283   -0.4092 H   0  0  0  0  0  0  0  0  0  0  0  0
   -2.0639   -0.7574    0.5652 H   0  0  0  0  0  0  0  0  0  0  0  0
  1  2  1  0
  1  3  1  0
  1  4  1  0
  2  5  1  0
  2  6  1  0
M  END
>  <_TriposChargeType>  (473) 
USER_CHARGES

>  <solvdG>  (473) 
-9.3

>  <fdG>  (473) 
-6.51

>  <fname>  (473) 
mobley_7261305

>  <cname>  (473) 
 hydrazine

>  <dataset>  (473) 
FreeSolv

$$$$
anisole
     RDKit          3D

 16 16  0  0  0  0  0  0  0  0999 V2000
    0.8349   -0.3917   -2.1375 C   0  0  0  0  0  0  0  0  0  0  0  0
    1.9270   -1.0156   -1.4726 O   0  0  0  0  0  0  0  0  0  0  0  0
    1.8851   -1.0363   -0.1124 C   0  0  0  0  0  0  0  0  0  0  0  0
    2.9210   -1.6309    0.6081 C   0  0  0  0  0  0  0  0  0  0  0  0
    2.8783   -1.6520    2.0022 C   0  0  0  0  0  0  0  0  0  0  0  0
    1.7997   -1.0786    2.6757 C   0  0  0  0  0  0  0  0  0  0  0  0
    0.7638   -0.4841    1.9551 C   0  0  0  0  0  0  0  0  0  0  0  0
    0.8066   -0.4630    0.5610 C   0  0  0  0  0  0  0  0  0  0  0  0
    0.9887   -0.4417   -3.2183 H   0  0  0  0  0  0  0  0  0  0  0  0
    0.7595    0.6506   -1.8173 H   0  0  0  0  0  0  0  0  0  0  0  0
   -0.0868   -0.9180   -1.8782 H   0  0  0  0  0  0  0  0  0  0  0  0
    3.7642   -2.0784    0.0892 H   0  0  0  0  0  0  0  0  0  0  0  0
    3.6852   -2.1140    2.5634 H   0  0  0  0  0  0  0  0  0  0  0  0
    1.7671   -1.0935    3.7610 H   0  0  0  0  0  0  0  0  0  0  0  0
   -0.0756   -0.0370    2.4799 H   0  0  0  0  0  0  0  0  0  0  0  0
   -0.0034    0.0014    0.0052 H   0  0  0  0  0  0  0  0  0  0  0  0
  1  2  1  0
  2  3  1  0
  3  8  2  0
  3  4  1  0
  4  5  2  0
  5  6  1  0
  6  7  2  0
  7  8  1  0
  1  9  1  0
  1 10  1  0
  1 11  1  0
  4 12  1  0
  5 13  1  0
  6 14  1  0
  7 15  1  0
  8 16  1  0
M  END
>  <_TriposChargeType>  (474) 
USER_CHARGES

>  <solvdG>  (474) 
-2.45

>  <fdG>  (474) 
-2.32

>  <fname>  (474) 
mobley_7295828

>  <cname>  (474) 
 anisole

>  <dataset>  (474) 
FreeSolv

$$$$
1-methyl-3-nitro-benzene
     RDKit          3D

 17 17  0  0  0  0  0  0  0  0999 V2000
    1.9305   -1.0135   -1.6027 C   0  0  0  0  0  0  0  0  0  0  0  0
    1.8851   -1.0363   -0.1124 C   0  0  0  0  0  0  0  0  0  0  0  0
    2.9210   -1.6309    0.6081 C   0  0  0  0  0  0  0  0  0  0  0  0
    2.8783   -1.6520    2.0022 C   0  0  0  0  0  0  0  0  0  0  0  0
    1.7997   -1.0786    2.6757 C   0  0  0  0  0  0  0  0  0  0  0  0
    0.7638   -0.4841    1.9551 C   0  0  0  0  0  0  0  0  0  0  0  0
    0.8066   -0.4630    0.5610 C   0  0  0  0  0  0  0  0  0  0  0  0
   -0.3329    0.1012    2.6415 N   0  0  0  0  0  4  0  0  0  0  0  0
   -1.2544    0.6311    1.9749 O   0  0  0  0  0  0  0  0  0  0  0  0
   -0.3502    0.0727    3.8958 O   0  0  0  0  0  1  0  0  0  0  0  0
    2.4383   -0.1078   -1.9480 H   0  0  0  0  0  0  0  0  0  0  0  0
    2.4631   -1.8879   -1.9911 H   0  0  0  0  0  0  0  0  0  0  0  0
    0.9202   -1.0359   -2.0249 H   0  0  0  0  0  0  0  0  0  0  0  0
    3.7655   -2.0799    0.0920 H   0  0  0  0  0  0  0  0  0  0  0  0
    3.6845   -2.1157    2.5631 H   0  0  0  0  0  0  0  0  0  0  0  0
    1.7792   -1.1022    3.7625 H   0  0  0  0  0  0  0  0  0  0  0  0
    0.0015    0.0004   -0.0050 H   0  0  0  0  0  0  0  0  0  0  0  0
  1  2  1  0
  2  7  2  0
  2  3  1  0
  3  4  2  0
  4  5  1  0
  5  6  2  0
  6  7  1  0
  6  8  1  0
  8  9  2  0
  8 10  1  0
  1 11  1  0
  1 12  1  0
  1 13  1  0
  3 14  1  0
  4 15  1  0
  5 16  1  0
  7 17  1  0
M  CHG  2   8   1  10  -1
M  END
>  <_TriposChargeType>  (475) 
USER_CHARGES

>  <solvdG>  (475) 
-3.45

>  <fdG>  (475) 
-3.28

>  <fname>  (475) 
mobley_7298388

>  <cname>  (475) 
 1-methyl-3-nitro-benzene

>  <dataset>  (475) 
FreeSolv

$$$$
diethoxy-thioxo-[(3,5,6-trichloro-2-pyridyl)oxy]-$l^{5}-phosphane
     RDKit          3D

 29 29  0  0  0  0  0  0  0  0999 V2000
    2.6943   -0.1504   -0.3077 C   0  0  0  0  0  0  0  0  0  0  0  0
    1.7988   -1.1310   -1.0343 C   0  0  0  0  0  0  0  0  0  0  0  0
    0.8703   -0.4092   -1.8262 O   0  0  0  0  0  0  0  0  0  0  0  0
   -0.2256   -1.2121   -2.7243 P   0  0  0  0  0  5  0  0  0  0  0  0
   -1.4493   -2.3693   -1.7408 S   0  0  0  0  0  0  0  0  0  0  0  0
    0.7376   -1.9141   -3.8319 O   0  0  0  0  0  0  0  0  0  0  0  0
    0.1882   -2.3658   -5.0580 C   0  0  0  0  0  0  0  0  0  0  0  0
    1.2902   -2.9741   -5.9003 C   0  0  0  0  0  0  0  0  0  0  0  0
   -0.8843    0.0037   -3.5707 O   0  0  0  0  0  0  0  0  0  0  0  0
   -1.5328    1.0946   -3.0580 C   0  0  0  0  0  0  0  0  0  0  0  0
   -2.0479    2.0601   -3.9078 C   0  0  0  0  0  0  0  0  0  0  0  0
   -2.6959    3.1502   -3.3376 C   0  0  0  0  0  0  0  0  0  0  0  0
   -2.8075    3.2400   -1.9545 C   0  0  0  0  0  0  0  0  0  0  0  0
   -2.2586    2.2215   -1.1921 C   0  0  0  0  0  0  0  0  0  0  0  0
   -1.6219    1.1473   -1.7100 N   0  0  0  0  0  0  0  0  0  0  0  0
   -2.3227    2.1973    0.5290 Cl  0  0  0  0  0  0  0  0  0  0  0  0
   -3.6142    4.5967   -1.2670 Cl  0  0  0  0  0  0  0  0  0  0  0  0
   -1.9057    1.9439   -5.6176 Cl  0  0  0  0  0  0  0  0  0  0  0  0
    3.4246   -0.6756    0.3142 H   0  0  0  0  0  0  0  0  0  0  0  0
    3.2294    0.4853   -1.0208 H   0  0  0  0  0  0  0  0  0  0  0  0
    2.1015    0.5147    0.3290 H   0  0  0  0  0  0  0  0  0  0  0  0
    1.2471   -1.7491   -0.3198 H   0  0  0  0  0  0  0  0  0  0  0  0
    2.3900   -1.7796   -1.6876 H   0  0  0  0  0  0  0  0  0  0  0  0
   -0.5865   -3.1100   -4.8467 H   0  0  0  0  0  0  0  0  0  0  0  0
   -0.2658   -1.5159   -5.5777 H   0  0  0  0  0  0  0  0  0  0  0  0
    0.8993   -3.3338   -6.8561 H   0  0  0  0  0  0  0  0  0  0  0  0
    2.0773   -2.2382   -6.0946 H   0  0  0  0  0  0  0  0  0  0  0  0
    1.7602   -3.8111   -5.3734 H   0  0  0  0  0  0  0  0  0  0  0  0
   -3.1136    3.9284   -3.9725 H   0  0  0  0  0  0  0  0  0  0  0  0
  1  2  1  0
  2  3  1  0
  3  4  1  0
  4  5  2  0
  4  6  1  0
  6  7  1  0
  7  8  1  0
  4  9  1  0
  9 10  1  0
 10 15  2  0
 10 11  1  0
 11 12  2  0
 12 13  1  0
 13 14  2  0
 14 15  1  0
 14 16  1  0
 13 17  1  0
 11 18  1  0
  1 19  1  0
  1 20  1  0
  1 21  1  0
  2 22  1  0
  2 23  1  0
  7 24  1  0
  7 25  1  0
  8 26  1  0
  8 27  1  0
  8 28  1  0
 12 29  1  0
M  END
>  <_TriposChargeType>  (476) 
USER_CHARGES

>  <solvdG>  (476) 
-5.04

>  <fdG>  (476) 
-9.62

>  <fname>  (476) 
mobley_7326706

>  <cname>  (476) 
 chlorpyrifos

>  <dataset>  (476) 
FreeSolv

$$$$
propan-2-ol
     RDKit          3D

 12 11  0  0  0  0  0  0  0  0999 V2000
    1.0765    0.0499    0.1958 C   0  0  0  0  0  0  0  0  0  0  0  0
    1.3532    0.9191    1.4130 C   0  0  0  0  0  0  0  0  0  0  0  0
    2.8427    1.0382    1.6976 C   0  0  0  0  0  0  0  0  0  0  0  0
    0.8123    2.2184    1.1940 O   0  0  0  0  0  0  0  0  0  0  0  0
    0.0028   -0.0291    0.0000 H   0  0  0  0  0  0  0  0  0  0  0  0
    1.5641    0.4693   -0.6907 H   0  0  0  0  0  0  0  0  0  0  0  0
    1.4833   -0.9585    0.3305 H   0  0  0  0  0  0  0  0  0  0  0  0
    0.8468    0.4961    2.2868 H   0  0  0  0  0  0  0  0  0  0  0  0
    3.0308    1.6651    2.5746 H   0  0  0  0  0  0  0  0  0  0  0  0
    3.3614    1.4749    0.8374 H   0  0  0  0  0  0  0  0  0  0  0  0
    3.2912    0.0533    1.8684 H   0  0  0  0  0  0  0  0  0  0  0  0
   -0.1413    2.1024    1.0591 H   0  0  0  0  0  0  0  0  0  0  0  0
  1  2  1  0
  2  3  1  0
  2  4  1  0
  1  5  1  0
  1  6  1  0
  1  7  1  0
  2  8  1  0
  3  9  1  0
  3 10  1  0
  3 11  1  0
  4 12  1  0
M  END
>  <_TriposChargeType>  (477) 
USER_CHARGES

>  <solvdG>  (477) 
-4.74

>  <fdG>  (477) 
-3.43

>  <fname>  (477) 
mobley_7326982

>  <cname>  (477) 
 propan-2-ol

>  <dataset>  (477) 
FreeSolv

$$$$
1,1,1-trifluoro-2,2,2-trimethoxy-ethane
     RDKit          3D

 20 19  0  0  0  0  0  0  0  0999 V2000
    1.2806    0.6403   -1.6563 C   0  0  0  0  0  0  0  0  0  0  0  0
    0.2069   -0.1192   -1.1209 O   0  0  0  0  0  0  0  0  0  0  0  0
   -0.0262    0.0275    0.2914 C   0  0  0  0  0  0  0  0  0  0  0  0
    1.1977   -0.3900    1.1155 C   0  0  0  0  0  0  0  0  0  0  0  0
    2.2744    0.3659    0.7993 F   0  0  0  0  0  0  0  0  0  0  0  0
    1.5386   -1.6786    0.8863 F   0  0  0  0  0  0  0  0  0  0  0  0
    0.9809   -0.2606    2.4422 F   0  0  0  0  0  0  0  0  0  0  0  0
   -0.2737    1.4049    0.6567 O   0  0  0  0  0  0  0  0  0  0  0  0
   -1.4069    1.9746    0.0134 C   0  0  0  0  0  0  0  0  0  0  0  0
   -1.1603   -0.7686    0.6998 O   0  0  0  0  0  0  0  0  0  0  0  0
   -1.2618   -2.0519    0.0999 C   0  0  0  0  0  0  0  0  0  0  0  0
    1.3628    0.4503   -2.7293 H   0  0  0  0  0  0  0  0  0  0  0  0
    2.2107    0.3625   -1.1540 H   0  0  0  0  0  0  0  0  0  0  0  0
    1.0824    1.7019   -1.4908 H   0  0  0  0  0  0  0  0  0  0  0  0
   -1.5234    3.0084    0.3410 H   0  0  0  0  0  0  0  0  0  0  0  0
   -2.2941    1.3932    0.2678 H   0  0  0  0  0  0  0  0  0  0  0  0
   -1.2467    1.9473   -1.0649 H   0  0  0  0  0  0  0  0  0  0  0  0
   -2.1499   -2.5589    0.4808 H   0  0  0  0  0  0  0  0  0  0  0  0
   -0.3663   -2.6309    0.3326 H   0  0  0  0  0  0  0  0  0  0  0  0
   -1.3468   -1.9283   -0.9809 H   0  0  0  0  0  0  0  0  0  0  0  0
  1  2  1  0
  2  3  1  0
  3  4  1  0
  4  5  1  0
  4  6  1  0
  4  7  1  0
  3  8  1  0
  8  9  1  0
  3 10  1  0
 10 11  1  0
  1 12  1  0
  1 13  1  0
  1 14  1  0
  9 15  1  0
  9 16  1  0
  9 17  1  0
 11 18  1  0
 11 19  1  0
 11 20  1  0
M  END
>  <_TriposChargeType>  (478) 
USER_CHARGES

>  <solvdG>  (478) 
-0.8

>  <fdG>  (478) 
-2.32

>  <fname>  (478) 
mobley_7360181

>  <cname>  (478) 
 1,1,1-trifluoro-2,2,2-trimethoxyethane

>  <dataset>  (478) 
FreeSolv

$$$$
3,5,5-trimethylcyclohex-2-en-1-one
     RDKit          3D

 24 24  0  0  0  0  0  0  0  0999 V2000
    0.1358   -2.7138    1.0776 C   0  0  0  0  0  0  0  0  0  0  0  0
    0.9790   -1.4745    1.1625 C   0  0  0  0  0  0  0  0  0  0  0  0
    1.7066   -1.2020    2.2557 C   0  0  0  0  0  0  0  0  0  0  0  0
    2.4902    0.0535    2.3483 C   0  0  0  0  0  0  0  0  0  0  0  0
    3.1579    0.2806    3.3559 O   0  0  0  0  0  0  0  0  0  0  0  0
    2.3870    1.0607    1.2228 C   0  0  0  0  0  0  0  0  0  0  0  0
    2.1416    0.3972   -0.1424 C   0  0  0  0  0  0  0  0  0  0  0  0
    0.9390   -0.5680   -0.0429 C   0  0  0  0  0  0  0  0  0  0  0  0
    3.4058   -0.3591   -0.6038 C   0  0  0  0  0  0  0  0  0  0  0  0
    1.8307    1.4850   -1.1861 C   0  0  0  0  0  0  0  0  0  0  0  0
    0.7127   -3.5364    0.6468 H   0  0  0  0  0  0  0  0  0  0  0  0
   -0.7420   -2.5339    0.4507 H   0  0  0  0  0  0  0  0  0  0  0  0
   -0.2073   -3.0084    2.0733 H   0  0  0  0  0  0  0  0  0  0  0  0
    1.7308   -1.8662    3.1126 H   0  0  0  0  0  0  0  0  0  0  0  0
    1.5691    1.7461    1.4774 H   0  0  0  0  0  0  0  0  0  0  0  0
    3.3156    1.6437    1.1979 H   0  0  0  0  0  0  0  0  0  0  0  0
    0.0003    0.0004   -0.0001 H   0  0  0  0  0  0  0  0  0  0  0  0
    0.8937   -1.1755   -0.9564 H   0  0  0  0  0  0  0  0  0  0  0  0
    3.2110   -0.8179   -1.5657 H   0  0  0  0  0  0  0  0  0  0  0  0
    3.6471   -1.1215    0.1270 H   0  0  0  0  0  0  0  0  0  0  0  0
    4.2258    0.3438   -0.6891 H   0  0  0  0  0  0  0  0  0  0  0  0
    1.6577    1.0168   -2.1491 H   0  0  0  0  0  0  0  0  0  0  0  0
    2.6736    2.1643   -1.2556 H   0  0  0  0  0  0  0  0  0  0  0  0
    0.9447    2.0308   -0.8798 H   0  0  0  0  0  0  0  0  0  0  0  0
  1  2  1  0
  2  8  1  0
  2  3  2  0
  3  4  1  0
  4  5  2  0
  4  6  1  0
  6  7  1  0
  7  8  1  0
  7  9  1  0
  7 10  1  0
  1 11  1  0
  1 12  1  0
  1 13  1  0
  3 14  1  0
  6 15  1  0
  6 16  1  0
  8 17  1  0
  8 18  1  0
  9 19  1  0
  9 20  1  0
  9 21  1  0
 10 22  1  0
 10 23  1  0
 10 24  1  0
M  END
>  <_TriposChargeType>  (479) 
USER_CHARGES

>  <solvdG>  (479) 
-5.18

>  <fdG>  (479) 
-4.09

>  <fname>  (479) 
mobley_7364468

>  <cname>  (479) 
 3,5,5-trimethylcyclohex-2-en-1-one

>  <dataset>  (479) 
FreeSolv

$$$$
undecan-2-one
     RDKit          3D

 34 33  0  0  0  0  0  0  0  0999 V2000
   -6.7544    2.6185    1.0080 C   0  0  0  0  0  0  0  0  0  0  0  0
   -5.3339    3.0646    0.6999 C   0  0  0  0  0  0  0  0  0  0  0  0
   -4.3148    1.9885    1.0767 C   0  0  0  0  0  0  0  0  0  0  0  0
   -2.8880    2.4436    0.7642 C   0  0  0  0  0  0  0  0  0  0  0  0
   -1.8227    1.4026    1.1222 C   0  0  0  0  0  0  0  0  0  0  0  0
   -0.3728    1.8021    0.8316 C   0  0  0  0  0  0  0  0  0  0  0  0
    0.6446    0.7235    1.2097 C   0  0  0  0  0  0  0  0  0  0  0  0
    2.0743    1.1784    0.8970 C   0  0  0  0  0  0  0  0  0  0  0  0
    3.1149    0.1216    1.2638 C   0  0  0  0  0  0  0  0  0  0  0  0
    4.5455    0.5401    0.9666 C   0  0  0  0  0  0  0  0  0  0  0  0
    4.8353    1.6300    0.4760 O   0  0  0  0  0  0  0  0  0  0  0  0
    5.6170   -0.4519    1.3387 C   0  0  0  0  0  0  0  0  0  0  0  0
   -7.4768    3.3946    0.7352 H   0  0  0  0  0  0  0  0  0  0  0  0
   -7.0069    1.7056    0.4592 H   0  0  0  0  0  0  0  0  0  0  0  0
   -6.8636    2.4132    2.0775 H   0  0  0  0  0  0  0  0  0  0  0  0
   -5.1198    3.9888    1.2495 H   0  0  0  0  0  0  0  0  0  0  0  0
   -5.2540    3.2961   -0.3686 H   0  0  0  0  0  0  0  0  0  0  0  0
   -4.4121    1.7632    2.1447 H   0  0  0  0  0  0  0  0  0  0  0  0
   -4.5348    1.0652    0.5274 H   0  0  0  0  0  0  0  0  0  0  0  0
   -2.8063    2.6551   -0.3096 H   0  0  0  0  0  0  0  0  0  0  0  0
   -2.6778    3.3886    1.2781 H   0  0  0  0  0  0  0  0  0  0  0  0
   -2.0498    0.4758    0.5805 H   0  0  0  0  0  0  0  0  0  0  0  0
   -1.9072    1.1626    2.1895 H   0  0  0  0  0  0  0  0  0  0  0  0
   -0.2607    2.0646   -0.2266 H   0  0  0  0  0  0  0  0  0  0  0  0
   -0.1539    2.7160    1.3984 H   0  0  0  0  0  0  0  0  0  0  0  0
    0.4262   -0.2002    0.6642 H   0  0  0  0  0  0  0  0  0  0  0  0
    0.5583    0.4969    2.2792 H   0  0  0  0  0  0  0  0  0  0  0  0
    2.2887    2.0890    1.4698 H   0  0  0  0  0  0  0  0  0  0  0  0
    2.1581    1.4421   -0.1641 H   0  0  0  0  0  0  0  0  0  0  0  0
    3.0587   -0.0779    2.3400 H   0  0  0  0  0  0  0  0  0  0  0  0
    2.9049   -0.8130    0.7322 H   0  0  0  0  0  0  0  0  0  0  0  0
    5.8079   -1.1188    0.4943 H   0  0  0  0  0  0  0  0  0  0  0  0
    5.2870   -1.0487    2.1936 H   0  0  0  0  0  0  0  0  0  0  0  0
    6.5303    0.0819    1.6130 H   0  0  0  0  0  0  0  0  0  0  0  0
  1  2  1  0
  2  3  1  0
  3  4  1  0
  4  5  1  0
  5  6  1  0
  6  7  1  0
  7  8  1  0
  8  9  1  0
  9 10  1  0
 10 11  2  0
 10 12  1  0
  1 13  1  0
  1 14  1  0
  1 15  1  0
  2 16  1  0
  2 17  1  0
  3 18  1  0
  3 19  1  0
  4 20  1  0
  4 21  1  0
  5 22  1  0
  5 23  1  0
  6 24  1  0
  6 25  1  0
  7 26  1  0
  7 27  1  0
  8 28  1  0
  8 29  1  0
  9 30  1  0
  9 31  1  0
 12 32  1  0
 12 33  1  0
 12 34  1  0
M  END
>  <_TriposChargeType>  (480) 
USER_CHARGES

>  <solvdG>  (480) 
-2.15

>  <fdG>  (480) 
-2.2

>  <fname>  (480) 
mobley_7375018

>  <cname>  (480) 
 undecan-2-one

>  <dataset>  (480) 
FreeSolv

$$$$
1,3,7-trimethylpurine-2,6-dione
     RDKit          3D

 24 25  0  0  0  0  0  0  0  0999 V2000
    6.0482    2.9534   -1.7311 C   0  0  0  0  0  0  0  0  0  0  0  0
    4.9734    2.0838   -1.3171 N   0  0  0  0  0  0  0  0  0  0  0  0
    5.1112    0.7768   -0.9264 C   0  0  0  0  0  0  0  0  0  0  0  0
    3.9557    0.2327   -0.6044 N   0  0  0  0  0  0  0  0  0  0  0  0
    3.0449    1.2362   -0.7981 C   0  0  0  0  0  0  0  0  0  0  0  0
    3.6441    2.3853   -1.2367 C   0  0  0  0  0  0  0  0  0  0  0  0
    2.9523    3.5995   -1.5265 C   0  0  0  0  0  0  0  0  0  0  0  0
    3.5083    4.6218   -1.9182 O   0  0  0  0  0  0  0  0  0  0  0  0
    1.5557    3.4679   -1.3036 N   0  0  0  0  0  0  0  0  0  0  0  0
    0.8629    2.2904   -0.8430 C   0  0  0  0  0  0  0  0  0  0  0  0
   -0.3623    2.2779   -0.6782 O   0  0  0  0  0  0  0  0  0  0  0  0
    1.6743    1.1555   -0.5931 N   0  0  0  0  0  0  0  0  0  0  0  0
    1.0741   -0.0872   -0.1242 C   0  0  0  0  0  0  0  0  0  0  0  0
    0.7176    4.6347   -1.5594 C   0  0  0  0  0  0  0  0  0  0  0  0
    6.4290    3.4651   -0.8433 H   0  0  0  0  0  0  0  0  0  0  0  0
    6.8384    2.3588   -2.1980 H   0  0  0  0  0  0  0  0  0  0  0  0
    5.6681    3.6773   -2.4574 H   0  0  0  0  0  0  0  0  0  0  0  0
    6.0713    0.2798   -0.8985 H   0  0  0  0  0  0  0  0  0  0  0  0
    0.8003   -0.6953   -0.9817 H   0  0  0  0  0  0  0  0  0  0  0  0
    0.1884    0.1422    0.4618 H   0  0  0  0  0  0  0  0  0  0  0  0
    1.7925   -0.6215    0.4913 H   0  0  0  0  0  0  0  0  0  0  0  0
    0.3879    4.6135   -2.5936 H   0  0  0  0  0  0  0  0  0  0  0  0
    1.2954    5.5354   -1.3745 H   0  0  0  0  0  0  0  0  0  0  0  0
   -0.1426    4.6072   -0.8971 H   0  0  0  0  0  0  0  0  0  0  0  0
  1  2  1  0
  2  6  1  0
  2  3  1  0
  3  4  2  0
  4  5  1  0
  5 12  1  0
  5  6  2  0
  6  7  1  0
  7  8  2  0
  7  9  1  0
  9 10  1  0
 10 11  2  0
 10 12  1  0
 12 13  1  0
  9 14  1  0
  1 15  1  0
  1 16  1  0
  1 17  1  0
  3 18  1  0
 13 19  1  0
 13 20  1  0
 13 21  1  0
 14 22  1  0
 14 23  1  0
 14 24  1  0
M  END
>  <_TriposChargeType>  (481) 
USER_CHARGES

>  <solvdG>  (481) 
-12.64

>  <fdG>  (481) 
-17.62

>  <fname>  (481) 
mobley_7378987

>  <cname>  (481) 
 caffeine

>  <dataset>  (481) 
FreeSolv

$$$$
methyl 4-methoxybenzoate
     RDKit          3D

 22 22  0  0  0  0  0  0  0  0999 V2000
    0.8348   -0.3922   -2.1380 C   0  0  0  0  0  0  0  0  0  0  0  0
    1.9270   -1.0159   -1.4729 O   0  0  0  0  0  0  0  0  0  0  0  0
    1.8851   -1.0363   -0.1124 C   0  0  0  0  0  0  0  0  0  0  0  0
    2.9210   -1.6309    0.6081 C   0  0  0  0  0  0  0  0  0  0  0  0
    2.8783   -1.6520    2.0022 C   0  0  0  0  0  0  0  0  0  0  0  0
    1.7997   -1.0786    2.6757 C   0  0  0  0  0  0  0  0  0  0  0  0
    0.7638   -0.4841    1.9551 C   0  0  0  0  0  0  0  0  0  0  0  0
    0.8066   -0.4630    0.5610 C   0  0  0  0  0  0  0  0  0  0  0  0
    1.7565   -1.0991    4.1291 C   0  0  0  0  0  0  0  0  0  0  0  0
    2.6298   -1.6018    4.8487 O   0  0  0  0  0  0  0  0  0  0  0  0
    0.6281   -0.4909    4.6077 O   0  0  0  0  0  0  0  0  0  0  0  0
    0.4709   -0.4461    6.0300 C   0  0  0  0  0  0  0  0  0  0  0  0
    0.9886   -0.4424   -3.2187 H   0  0  0  0  0  0  0  0  0  0  0  0
    0.7593    0.6501   -1.8180 H   0  0  0  0  0  0  0  0  0  0  0  0
   -0.0868   -0.9186   -1.8785 H   0  0  0  0  0  0  0  0  0  0  0  0
    3.7643   -2.0788    0.0895 H   0  0  0  0  0  0  0  0  0  0  0  0
    3.6916   -2.1175    2.5532 H   0  0  0  0  0  0  0  0  0  0  0  0
   -0.0808   -0.0337    2.4697 H   0  0  0  0  0  0  0  0  0  0  0  0
   -0.0034    0.0020    0.0054 H   0  0  0  0  0  0  0  0  0  0  0  0
   -0.4623    0.0617    6.2623 H   0  0  0  0  0  0  0  0  0  0  0  0
    1.3178    0.0851    6.4585 H   0  0  0  0  0  0  0  0  0  0  0  0
    0.4432   -1.4679    6.4010 H   0  0  0  0  0  0  0  0  0  0  0  0
  1  2  1  0
  2  3  1  0
  3  8  2  0
  3  4  1  0
  4  5  2  0
  5  6  1  0
  6  7  2  0
  7  8  1  0
  6  9  1  0
  9 10  2  0
  9 11  1  0
 11 12  1  0
  1 13  1  0
  1 14  1  0
  1 15  1  0
  4 16  1  0
  5 17  1  0
  7 18  1  0
  8 19  1  0
 12 20  1  0
 12 21  1  0
 12 22  1  0
M  END
>  <_TriposChargeType>  (482) 
USER_CHARGES

>  <solvdG>  (482) 
-5.33

>  <fdG>  (482) 
-6.46

>  <fname>  (482) 
mobley_7393673

>  <cname>  (482) 
 methyl 4-methoxybenzoate

>  <dataset>  (482) 
FreeSolv

$$$$
N,N-dimethyl-4-nitro-benzamide
     RDKit          3D

 24 24  0  0  0  0  0  0  0  0999 V2000
    1.0811   -0.1532   -0.2186 C   0  0  0  0  0  0  0  0  0  0  0  0
    1.5190    0.5270   -1.4294 N   0  0  0  0  0  0  0  0  0  0  0  0
    1.0619   -0.0615   -2.6864 C   0  0  0  0  0  0  0  0  0  0  0  0
    2.3234    1.6663   -1.3232 C   0  0  0  0  0  0  0  0  0  0  0  0
    2.7119    2.1690   -0.2695 O   0  0  0  0  0  0  0  0  0  0  0  0
    2.7669    2.3258   -2.5617 C   0  0  0  0  0  0  0  0  0  0  0  0
    3.9647    1.9427   -3.1651 C   0  0  0  0  0  0  0  0  0  0  0  0
    4.3854    2.5678   -4.3390 C   0  0  0  0  0  0  0  0  0  0  0  0
    3.6083    3.5760   -4.9093 C   0  0  0  0  0  0  0  0  0  0  0  0
    2.4105    3.9591   -4.3058 C   0  0  0  0  0  0  0  0  0  0  0  0
    1.9898    3.3340   -3.1320 C   0  0  0  0  0  0  0  0  0  0  0  0
    4.0367    4.2117   -6.1044 N   0  0  0  0  0  4  0  0  0  0  0  0
    3.3231    5.1163   -6.6016 O   0  0  0  0  0  0  0  0  0  0  0  0
    5.1171    3.8515   -6.6313 O   0  0  0  0  0  1  0  0  0  0  0  0
    1.8071   -0.9195    0.0653 H   0  0  0  0  0  0  0  0  0  0  0  0
    0.1114   -0.6308   -0.3831 H   0  0  0  0  0  0  0  0  0  0  0  0
    0.9847    0.5619    0.6028 H   0  0  0  0  0  0  0  0  0  0  0  0
    0.1130    0.3877   -2.9604 H   0  0  0  0  0  0  0  0  0  0  0  0
    0.9406   -1.1317   -2.5527 H   0  0  0  0  0  0  0  0  0  0  0  0
    1.8005    0.1329   -3.4574 H   0  0  0  0  0  0  0  0  0  0  0  0
    4.5777    1.1580   -2.7293 H   0  0  0  0  0  0  0  0  0  0  0  0
    5.3208    2.2592   -4.7996 H   0  0  0  0  0  0  0  0  0  0  0  0
    1.7952    4.7434   -4.7396 H   0  0  0  0  0  0  0  0  0  0  0  0
    1.0552    3.6411   -2.6693 H   0  0  0  0  0  0  0  0  0  0  0  0
  1  2  1  0
  2  3  1  0
  2  4  1  0
  4  5  2  0
  4  6  1  0
  6 11  2  0
  6  7  1  0
  7  8  2  0
  8  9  1  0
  9 10  2  0
 10 11  1  0
  9 12  1  0
 12 13  2  0
 12 14  1  0
  1 15  1  0
  1 16  1  0
  1 17  1  0
  3 18  1  0
  3 19  1  0
  3 20  1  0
  7 21  1  0
  8 22  1  0
 10 23  1  0
 11 24  1  0
M  CHG  2  12   1  14  -1
M  END
>  <_TriposChargeType>  (483) 
USER_CHARGES

>  <solvdG>  (483) 
-11.95

>  <fdG>  (483) 
-10.04

>  <fname>  (483) 
mobley_7415647

>  <cname>  (483) 
 N,N-dimethyl-4-nitro-benzamide

>  <dataset>  (483) 
FreeSolv

$$$$
2-ethoxyethyl acetate
     RDKit          3D

 21 20  0  0  0  0  0  0  0  0999 V2000
    1.2254   -0.5762   -5.4127 C   0  0  0  0  0  0  0  0  0  0  0  0
    0.2816    0.5843   -5.1803 C   0  0  0  0  0  0  0  0  0  0  0  0
   -0.6779    0.2117   -4.2003 O   0  0  0  0  0  0  0  0  0  0  0  0
   -1.5951    1.2671   -3.9396 C   0  0  0  0  0  0  0  0  0  0  0  0
   -2.5898    0.8104   -2.8899 C   0  0  0  0  0  0  0  0  0  0  0  0
   -1.8828    0.4727   -1.6923 O   0  0  0  0  0  0  0  0  0  0  0  0
   -2.6576    0.0424   -0.6562 C   0  0  0  0  0  0  0  0  0  0  0  0
   -3.8753   -0.0773   -0.6607 O   0  0  0  0  0  0  0  0  0  0  0  0
   -1.7876   -0.2733    0.5226 C   0  0  0  0  0  0  0  0  0  0  0  0
    1.9787   -0.3223   -6.1636 H   0  0  0  0  0  0  0  0  0  0  0  0
    1.7326   -0.8535   -4.4828 H   0  0  0  0  0  0  0  0  0  0  0  0
    0.6741   -1.4602   -5.7503 H   0  0  0  0  0  0  0  0  0  0  0  0
   -0.2420    0.8444   -6.1051 H   0  0  0  0  0  0  0  0  0  0  0  0
    0.8307    1.4598   -4.8210 H   0  0  0  0  0  0  0  0  0  0  0  0
   -1.0262    2.1352   -3.5927 H   0  0  0  0  0  0  0  0  0  0  0  0
   -2.1095    1.5125   -4.8733 H   0  0  0  0  0  0  0  0  0  0  0  0
   -3.1371   -0.0766   -3.2242 H   0  0  0  0  0  0  0  0  0  0  0  0
   -3.2957    1.6128   -2.6564 H   0  0  0  0  0  0  0  0  0  0  0  0
   -1.6685    0.6172    1.1447 H   0  0  0  0  0  0  0  0  0  0  0  0
   -0.8157   -0.6368    0.1796 H   0  0  0  0  0  0  0  0  0  0  0  0
   -2.2599   -1.0568    1.1223 H   0  0  0  0  0  0  0  0  0  0  0  0
  1  2  1  0
  2  3  1  0
  3  4  1  0
  4  5  1  0
  5  6  1  0
  6  7  1  0
  7  8  2  0
  7  9  1  0
  1 10  1  0
  1 11  1  0
  1 12  1  0
  2 13  1  0
  2 14  1  0
  4 15  1  0
  4 16  1  0
  5 17  1  0
  5 18  1  0
  9 19  1  0
  9 20  1  0
  9 21  1  0
M  END
>  <_TriposChargeType>  (484) 
USER_CHARGES

>  <solvdG>  (484) 
-5.31

>  <fdG>  (484) 
-5.75

>  <fname>  (484) 
mobley_7417968

>  <cname>  (484) 
 2-ethoxyethyl acetate

>  <dataset>  (484) 
FreeSolv

$$$$
isobutyl formate
     RDKit          3D

 17 16  0  0  0  0  0  0  0  0999 V2000
    0.9983   -0.3578   -0.2742 C   0  0  0  0  0  0  0  0  0  0  0  0
    1.8182    0.7470   -0.9439 C   0  0  0  0  0  0  0  0  0  0  0  0
    1.1578    1.1798   -2.2511 C   0  0  0  0  0  0  0  0  0  0  0  0
    1.9991    1.9493   -0.0132 C   0  0  0  0  0  0  0  0  0  0  0  0
    2.6754    1.5475    1.1709 O   0  0  0  0  0  0  0  0  0  0  0  0
    2.8988    2.5317    2.0856 C   0  0  0  0  0  0  0  0  0  0  0  0
    2.5838    3.7082    1.9978 O   0  0  0  0  0  0  0  0  0  0  0  0
    1.4668   -0.6730    0.6644 H   0  0  0  0  0  0  0  0  0  0  0  0
    0.9144   -1.2373   -0.9218 H   0  0  0  0  0  0  0  0  0  0  0  0
   -0.0135   -0.0122   -0.0385 H   0  0  0  0  0  0  0  0  0  0  0  0
    2.8075    0.3294   -1.1709 H   0  0  0  0  0  0  0  0  0  0  0  0
    1.7384    1.9708   -2.7374 H   0  0  0  0  0  0  0  0  0  0  0  0
    0.1511    1.5698   -2.0675 H   0  0  0  0  0  0  0  0  0  0  0  0
    1.0744    0.3418   -2.9516 H   0  0  0  0  0  0  0  0  0  0  0  0
    2.6000    2.7249   -0.4995 H   0  0  0  0  0  0  0  0  0  0  0  0
    1.0323    2.3812    0.2672 H   0  0  0  0  0  0  0  0  0  0  0  0
    3.4243    2.0994    2.9511 H   0  0  0  0  0  0  0  0  0  0  0  0
  1  2  1  0
  2  3  1  0
  2  4  1  0
  4  5  1  0
  5  6  1  0
  6  7  2  0
  1  8  1  0
  1  9  1  0
  1 10  1  0
  2 11  1  0
  3 12  1  0
  3 13  1  0
  3 14  1  0
  4 15  1  0
  4 16  1  0
  6 17  1  0
M  END
>  <_TriposChargeType>  (485) 
USER_CHARGES

>  <solvdG>  (485) 
-2.22

>  <fdG>  (485) 
-3.46

>  <fname>  (485) 
mobley_7455579

>  <cname>  (485) 
 isobutyl formate

>  <dataset>  (485) 
FreeSolv

$$$$
N-(3,4-dichlorophenyl)propanamide
     RDKit          3D

 22 22  0  0  0  0  0  0  0  0999 V2000
   -0.6157   -0.8901   -0.1616 C   0  0  0  0  0  0  0  0  0  0  0  0
   -1.0339   -0.9864   -1.6179 C   0  0  0  0  0  0  0  0  0  0  0  0
   -1.8948   -2.2080   -1.9032 C   0  0  0  0  0  0  0  0  0  0  0  0
   -2.1990   -3.0088   -1.0253 O   0  0  0  0  0  0  0  0  0  0  0  0
   -2.2508   -2.2512   -3.2482 N   0  0  0  0  0  0  0  0  0  0  0  0
   -3.0418   -3.2268   -3.9003 C   0  0  0  0  0  0  0  0  0  0  0  0
   -3.5613   -4.3003   -3.1769 C   0  0  0  0  0  0  0  0  0  0  0  0
   -4.3415   -5.2618   -3.8192 C   0  0  0  0  0  0  0  0  0  0  0  0
   -4.6020   -5.1498   -5.1849 C   0  0  0  0  0  0  0  0  0  0  0  0
   -4.0824   -4.0763   -5.9083 C   0  0  0  0  0  0  0  0  0  0  0  0
   -3.3023   -3.1148   -5.2660 C   0  0  0  0  0  0  0  0  0  0  0  0
   -4.3710   -3.8820   -7.6020 Cl  0  0  0  0  0  0  0  0  0  0  0  0
   -5.5771   -6.3717   -5.9225 Cl  0  0  0  0  0  0  0  0  0  0  0  0
    0.0016   -0.0027    0.0124 H   0  0  0  0  0  0  0  0  0  0  0  0
   -0.0359   -1.7721    0.1275 H   0  0  0  0  0  0  0  0  0  0  0  0
   -1.4897   -0.8250    0.4948 H   0  0  0  0  0  0  0  0  0  0  0  0
   -0.1411   -1.0348   -2.2520 H   0  0  0  0  0  0  0  0  0  0  0  0
   -1.5997   -0.0898   -1.8959 H   0  0  0  0  0  0  0  0  0  0  0  0
   -1.9015   -1.4928   -3.8304 H   0  0  0  0  0  0  0  0  0  0  0  0
   -3.3649   -4.3962   -2.1121 H   0  0  0  0  0  0  0  0  0  0  0  0
   -4.7398   -6.0903   -3.2389 H   0  0  0  0  0  0  0  0  0  0  0  0
   -2.8939   -2.2754   -5.8254 H   0  0  0  0  0  0  0  0  0  0  0  0
  1  2  1  0
  2  3  1  0
  3  4  2  0
  3  5  1  0
  5  6  1  0
  6 11  2  0
  6  7  1  0
  7  8  2  0
  8  9  1  0
  9 10  2  0
 10 11  1  0
 10 12  1  0
  9 13  1  0
  1 14  1  0
  1 15  1  0
  1 16  1  0
  2 17  1  0
  2 18  1  0
  5 19  1  0
  7 20  1  0
  8 21  1  0
 11 22  1  0
M  END
>  <_TriposChargeType>  (486) 
USER_CHARGES

>  <solvdG>  (486) 
-7.78

>  <fdG>  (486) 
-9.41

>  <fname>  (486) 
mobley_7463408

>  <cname>  (486) 
 N-(3,4-dichlorophenyl)propanimidic acid

>  <dataset>  (486) 
FreeSolv

$$$$
3-phenylpropan-1-ol
     RDKit          3D

 22 22  0  0  0  0  0  0  0  0999 V2000
    1.8851   -1.0363   -0.1124 C   0  0  0  0  0  0  0  0  0  0  0  0
    2.9210   -1.6309    0.6081 C   0  0  0  0  0  0  0  0  0  0  0  0
    2.8783   -1.6520    2.0022 C   0  0  0  0  0  0  0  0  0  0  0  0
    1.7997   -1.0786    2.6757 C   0  0  0  0  0  0  0  0  0  0  0  0
    0.7638   -0.4841    1.9551 C   0  0  0  0  0  0  0  0  0  0  0  0
    0.8066   -0.4630    0.5610 C   0  0  0  0  0  0  0  0  0  0  0  0
    1.7548   -1.1014    4.1663 C   0  0  0  0  0  0  0  0  0  0  0  0
    1.0506   -2.3549    4.7037 C   0  0  0  0  0  0  0  0  0  0  0  0
    1.0038   -2.3798    6.2252 C   0  0  0  0  0  0  0  0  0  0  0  0
    0.3405   -3.5640    6.6451 O   0  0  0  0  0  0  0  0  0  0  0  0
    1.9176   -1.0210   -1.1980 H   0  0  0  0  0  0  0  0  0  0  0  0
    3.7604   -2.0783    0.0841 H   0  0  0  0  0  0  0  0  0  0  0  0
    3.6899   -2.1173    2.5553 H   0  0  0  0  0  0  0  0  0  0  0  0
   -0.0804   -0.0348    2.4713 H   0  0  0  0  0  0  0  0  0  0  0  0
   -0.0006   -0.0010    0.0001 H   0  0  0  0  0  0  0  0  0  0  0  0
    1.2389   -0.2055    4.5518 H   0  0  0  0  0  0  0  0  0  0  0  0
    2.7745   -1.0540    4.5849 H   0  0  0  0  0  0  0  0  0  0  0  0
    1.5565   -3.2595    4.3416 H   0  0  0  0  0  0  0  0  0  0  0  0
    0.0280   -2.4148    4.3083 H   0  0  0  0  0  0  0  0  0  0  0  0
    2.0140   -2.3785    6.6471 H   0  0  0  0  0  0  0  0  0  0  0  0
    0.4539   -1.5164    6.6131 H   0  0  0  0  0  0  0  0  0  0  0  0
    0.3276   -3.5492    7.6159 H   0  0  0  0  0  0  0  0  0  0  0  0
  1  6  2  0
  1  2  1  0
  2  3  2  0
  3  4  1  0
  4  5  2  0
  5  6  1  0
  4  7  1  0
  7  8  1  0
  8  9  1  0
  9 10  1  0
  1 11  1  0
  2 12  1  0
  3 13  1  0
  5 14  1  0
  6 15  1  0
  7 16  1  0
  7 17  1  0
  8 18  1  0
  8 19  1  0
  9 20  1  0
  9 21  1  0
 10 22  1  0
M  END
>  <_TriposChargeType>  (487) 
USER_CHARGES

>  <solvdG>  (487) 
-6.92

>  <fdG>  (487) 
-5.77

>  <fname>  (487) 
mobley_7463799

>  <cname>  (487) 
 3-phenylpropan-1-ol

>  <dataset>  (487) 
FreeSolv

$$$$
1-phenylethanone
     RDKit          3D

 17 17  0  0  0  0  0  0  0  0999 V2000
    1.2615    0.1339   -2.2526 C   0  0  0  0  0  0  0  0  0  0  0  0
    1.9292   -1.0155   -1.5659 C   0  0  0  0  0  0  0  0  0  0  0  0
    2.4684   -1.8728   -2.2578 O   0  0  0  0  0  0  0  0  0  0  0  0
    1.8851   -1.0363   -0.1124 C   0  0  0  0  0  0  0  0  0  0  0  0
    2.9210   -1.6309    0.6081 C   0  0  0  0  0  0  0  0  0  0  0  0
    2.8783   -1.6520    2.0022 C   0  0  0  0  0  0  0  0  0  0  0  0
    1.7997   -1.0786    2.6757 C   0  0  0  0  0  0  0  0  0  0  0  0
    0.7638   -0.4841    1.9551 C   0  0  0  0  0  0  0  0  0  0  0  0
    0.8066   -0.4630    0.5610 C   0  0  0  0  0  0  0  0  0  0  0  0
    0.1994   -0.0375   -2.4890 H   0  0  0  0  0  0  0  0  0  0  0  0
    1.7631    0.4343   -3.1856 H   0  0  0  0  0  0  0  0  0  0  0  0
    1.2487    1.0520   -1.6385 H   0  0  0  0  0  0  0  0  0  0  0  0
    3.7660   -2.0811    0.0935 H   0  0  0  0  0  0  0  0  0  0  0  0
    3.6850   -2.1145    2.5633 H   0  0  0  0  0  0  0  0  0  0  0  0
    1.7660   -1.0948    3.7610 H   0  0  0  0  0  0  0  0  0  0  0  0
   -0.0760   -0.0384    2.4800 H   0  0  0  0  0  0  0  0  0  0  0  0
   -0.0059    0.0036    0.0099 H   0  0  0  0  0  0  0  0  0  0  0  0
  1  2  1  0
  2  3  2  0
  2  4  1  0
  4  9  2  0
  4  5  1  0
  5  6  2  0
  6  7  1  0
  7  8  2  0
  8  9  1  0
  1 10  1  0
  1 11  1  0
  1 12  1  0
  5 13  1  0
  6 14  1  0
  7 15  1  0
  8 16  1  0
  9 17  1  0
M  END
>  <_TriposChargeType>  (488) 
USER_CHARGES

>  <solvdG>  (488) 
-4.58

>  <fdG>  (488) 
-5.08

>  <fname>  (488) 
mobley_7497999

>  <cname>  (488) 
 1-phenylethanone

>  <dataset>  (488) 
FreeSolv

$$$$
acetonitrile
     RDKit          3D

  6  5  0  0  0  0  0  0  0  0999 V2000
    0.4477    0.2839    0.9571 C   0  0  0  0  0  0  0  0  0  0  0  0
   -0.2062    1.4713    1.5045 C   0  0  0  0  0  0  0  0  0  0  0  0
   -0.7251    2.4137    1.9390 N   0  0  0  0  0  0  0  0  0  0  0  0
   -0.2827   -0.5070    0.7620 H   0  0  0  0  0  0  0  0  0  0  0  0
    1.1929   -0.1068    1.6564 H   0  0  0  0  0  0  0  0  0  0  0  0
    0.9545    0.5181    0.0162 H   0  0  0  0  0  0  0  0  0  0  0  0
  1  2  1  0
  2  3  3  0
  1  4  1  0
  1  5  1  0
  1  6  1  0
M  END
>  <_TriposChargeType>  (489) 
USER_CHARGES

>  <solvdG>  (489) 
-3.88

>  <fdG>  (489) 
-2.79

>  <fname>  (489) 
mobley_7532833

>  <cname>  (489) 
 acetonitrile

>  <dataset>  (489) 
FreeSolv

$$$$
1-propoxypropane
     RDKit          3D

 21 20  0  0  0  0  0  0  0  0999 V2000
   -1.1990   -0.8867    2.8814 C   0  0  0  0  0  0  0  0  0  0  0  0
    0.1100   -0.6530    3.6139 C   0  0  0  0  0  0  0  0  0  0  0  0
    1.2749   -1.3494    2.9273 C   0  0  0  0  0  0  0  0  0  0  0  0
    2.4629   -1.0899    3.6622 O   0  0  0  0  0  0  0  0  0  0  0  0
    3.5918   -1.7167    3.0680 C   0  0  0  0  0  0  0  0  0  0  0  0
    4.8244   -1.4000    3.9007 C   0  0  0  0  0  0  0  0  0  0  0  0
    6.0747   -2.0393    3.3239 C   0  0  0  0  0  0  0  0  0  0  0  0
   -2.0271   -0.3798    3.3870 H   0  0  0  0  0  0  0  0  0  0  0  0
   -1.1368   -0.4991    1.8597 H   0  0  0  0  0  0  0  0  0  0  0  0
   -1.4321   -1.9547    2.8259 H   0  0  0  0  0  0  0  0  0  0  0  0
    0.0265   -1.0085    4.6479 H   0  0  0  0  0  0  0  0  0  0  0  0
    0.3123    0.4227    3.6810 H   0  0  0  0  0  0  0  0  0  0  0  0
    1.1169   -2.4321    2.8914 H   0  0  0  0  0  0  0  0  0  0  0  0
    1.4076   -0.9751    1.9072 H   0  0  0  0  0  0  0  0  0  0  0  0
    3.7021   -1.3389    2.0467 H   0  0  0  0  0  0  0  0  0  0  0  0
    3.4114   -2.7957    3.0313 H   0  0  0  0  0  0  0  0  0  0  0  0
    4.9570   -0.3133    3.9634 H   0  0  0  0  0  0  0  0  0  0  0  0
    4.6713   -1.7443    4.9306 H   0  0  0  0  0  0  0  0  0  0  0  0
    6.9527   -1.8027    3.9333 H   0  0  0  0  0  0  0  0  0  0  0  0
    5.9654   -3.1279    3.2942 H   0  0  0  0  0  0  0  0  0  0  0  0
    6.2596   -1.6886    2.3037 H   0  0  0  0  0  0  0  0  0  0  0  0
  1  2  1  0
  2  3  1  0
  3  4  1  0
  4  5  1  0
  5  6  1  0
  6  7  1  0
  1  8  1  0
  1  9  1  0
  1 10  1  0
  2 11  1  0
  2 12  1  0
  3 13  1  0
  3 14  1  0
  5 15  1  0
  5 16  1  0
  6 17  1  0
  6 18  1  0
  7 19  1  0
  7 20  1  0
  7 21  1  0
M  END
>  <_TriposChargeType>  (490) 
USER_CHARGES

>  <solvdG>  (490) 
-1.16

>  <fdG>  (490) 
-0.0

>  <fname>  (490) 
mobley_7542832

>  <cname>  (490) 
 1-propoxypropane

>  <dataset>  (490) 
FreeSolv

$$$$
3-methoxyaniline
     RDKit          3D

 18 18  0  0  0  0  0  0  0  0999 V2000
    3.0579   -1.6207   -2.0880 C   0  0  0  0  0  0  0  0  0  0  0  0
    1.9264   -1.0164   -1.4727 O   0  0  0  0  0  0  0  0  0  0  0  0
    1.8851   -1.0363   -0.1124 C   0  0  0  0  0  0  0  0  0  0  0  0
    2.9210   -1.6309    0.6081 C   0  0  0  0  0  0  0  0  0  0  0  0
    2.8783   -1.6520    2.0022 C   0  0  0  0  0  0  0  0  0  0  0  0
    1.7997   -1.0786    2.6757 C   0  0  0  0  0  0  0  0  0  0  0  0
    0.7638   -0.4841    1.9551 C   0  0  0  0  0  0  0  0  0  0  0  0
    0.8066   -0.4630    0.5610 C   0  0  0  0  0  0  0  0  0  0  0  0
   -0.3267    0.0958    2.6360 N   0  0  0  0  0  0  0  0  0  0  0  0
    2.9703   -1.5383   -3.1742 H   0  0  0  0  0  0  0  0  0  0  0  0
    3.1150   -2.6720   -1.7951 H   0  0  0  0  0  0  0  0  0  0  0  0
    3.9613   -1.1028   -1.7574 H   0  0  0  0  0  0  0  0  0  0  0  0
    3.7639   -2.0794    0.0894 H   0  0  0  0  0  0  0  0  0  0  0  0
    3.6847   -2.1151    2.5630 H   0  0  0  0  0  0  0  0  0  0  0  0
    1.7766   -1.0999    3.7623 H   0  0  0  0  0  0  0  0  0  0  0  0
    0.0020   -0.0002   -0.0056 H   0  0  0  0  0  0  0  0  0  0  0  0
   -0.3687    0.0327    3.6330 H   0  0  0  0  0  0  0  0  0  0  0  0
   -1.0851    0.4767    2.1070 H   0  0  0  0  0  0  0  0  0  0  0  0
  1  2  1  0
  2  3  1  0
  3  8  2  0
  3  4  1  0
  4  5  2  0
  5  6  1  0
  6  7  2  0
  7  8  1  0
  7  9  1  0
  1 10  1  0
  1 11  1  0
  1 12  1  0
  4 13  1  0
  5 14  1  0
  6 15  1  0
  8 16  1  0
  9 17  1  0
  9 18  1  0
M  END
>  <_TriposChargeType>  (491) 
USER_CHARGES

>  <solvdG>  (491) 
-7.29

>  <fdG>  (491) 
-7.2

>  <fname>  (491) 
mobley_755351

>  <cname>  (491) 
 3-methoxyaniline

>  <dataset>  (491) 
FreeSolv

$$$$
propyl acetate
     RDKit          3D

 17 16  0  0  0  0  0  0  0  0999 V2000
   -0.0023   -0.6657    0.8688 C   0  0  0  0  0  0  0  0  0  0  0  0
    1.2444   -0.4434    1.7060 C   0  0  0  0  0  0  0  0  0  0  0  0
    1.2749   -1.3494    2.9273 C   0  0  0  0  0  0  0  0  0  0  0  0
    2.4629   -1.0899    3.6622 O   0  0  0  0  0  0  0  0  0  0  0  0
    2.6357   -1.8329    4.7977 C   0  0  0  0  0  0  0  0  0  0  0  0
    1.8678   -2.6847    5.2241 O   0  0  0  0  0  0  0  0  0  0  0  0
    3.9233   -1.4542    5.4646 C   0  0  0  0  0  0  0  0  0  0  0  0
   -0.0099   -0.0072   -0.0057 H   0  0  0  0  0  0  0  0  0  0  0  0
   -0.0425   -1.7005    0.5148 H   0  0  0  0  0  0  0  0  0  0  0  0
   -0.9071   -0.4713    1.4534 H   0  0  0  0  0  0  0  0  0  0  0  0
    1.2973    0.6048    2.0240 H   0  0  0  0  0  0  0  0  0  0  0  0
    2.1387   -0.6182    1.0958 H   0  0  0  0  0  0  0  0  0  0  0  0
    0.4147   -1.1588    3.5770 H   0  0  0  0  0  0  0  0  0  0  0  0
    1.2712   -2.4035    2.6320 H   0  0  0  0  0  0  0  0  0  0  0  0
    3.7484   -0.6423    6.1747 H   0  0  0  0  0  0  0  0  0  0  0  0
    4.6575   -1.1565    4.7117 H   0  0  0  0  0  0  0  0  0  0  0  0
    4.3159   -2.3167    6.0110 H   0  0  0  0  0  0  0  0  0  0  0  0
  1  2  1  0
  2  3  1  0
  3  4  1  0
  4  5  1  0
  5  6  2  0
  5  7  1  0
  1  8  1  0
  1  9  1  0
  1 10  1  0
  2 11  1  0
  2 12  1  0
  3 13  1  0
  3 14  1  0
  7 15  1  0
  7 16  1  0
  7 17  1  0
M  END
>  <_TriposChargeType>  (492) 
USER_CHARGES

>  <solvdG>  (492) 
-2.79

>  <fdG>  (492) 
-3.49

>  <fname>  (492) 
mobley_7573149

>  <cname>  (492) 
 propyl acetate

>  <dataset>  (492) 
FreeSolv

$$$$
bromoform
     RDKit          3D

  5  4  0  0  0  0  0  0  0  0999 V2000
   -0.1053    0.0140   -0.0443 C   0  0  0  0  0  0  0  0  0  0  0  0
    0.1792   -1.9017    0.1250 Br  0  0  0  0  0  0  0  0  0  0  0  0
   -0.1068    0.9104    1.6807 Br  0  0  0  0  0  0  0  0  0  0  0  0
    1.1377    0.8320   -1.2955 Br  0  0  0  0  0  0  0  0  0  0  0  0
   -1.1047    0.1453   -0.4659 H   0  0  0  0  0  0  0  0  0  0  0  0
  1  2  1  0
  1  3  1  0
  1  4  1  0
  1  5  1  0
M  END
>  <_TriposChargeType>  (493) 
USER_CHARGES

>  <solvdG>  (493) 
-2.13

>  <fdG>  (493) 
-0.53

>  <fname>  (493) 
mobley_7578802

>  <cname>  (493) 
 bromoform

>  <dataset>  (493) 
FreeSolv

$$$$
bromobenzene
     RDKit          3D

 12 12  0  0  0  0  0  0  0  0999 V2000
    1.8851   -1.0363   -0.1124 C   0  0  0  0  0  0  0  0  0  0  0  0
    2.9210   -1.6309    0.6081 C   0  0  0  0  0  0  0  0  0  0  0  0
    2.8783   -1.6520    2.0022 C   0  0  0  0  0  0  0  0  0  0  0  0
    1.7997   -1.0786    2.6757 C   0  0  0  0  0  0  0  0  0  0  0  0
    0.7638   -0.4841    1.9551 C   0  0  0  0  0  0  0  0  0  0  0  0
    0.8066   -0.4630    0.5610 C   0  0  0  0  0  0  0  0  0  0  0  0
    1.7418   -1.1077    4.5643 Br  0  0  0  0  0  0  0  0  0  0  0  0
    1.9183   -1.0201   -1.1979 H   0  0  0  0  0  0  0  0  0  0  0  0
    3.7609   -2.0771    0.0838 H   0  0  0  0  0  0  0  0  0  0  0  0
    3.6935   -2.1192    2.5486 H   0  0  0  0  0  0  0  0  0  0  0  0
   -0.0837   -0.0329    2.4644 H   0  0  0  0  0  0  0  0  0  0  0  0
    0.0001    0.0000   -0.0000 H   0  0  0  0  0  0  0  0  0  0  0  0
  1  6  2  0
  1  2  1  0
  2  3  2  0
  3  4  1  0
  4  5  2  0
  5  6  1  0
  4  7  1  0
  1  8  1  0
  2  9  1  0
  3 10  1  0
  5 11  1  0
  6 12  1  0
M  END
>  <_TriposChargeType>  (494) 
USER_CHARGES

>  <solvdG>  (494) 
-1.46

>  <fdG>  (494) 
-0.95

>  <fname>  (494) 
mobley_7599023

>  <cname>  (494) 
 bromobenzene

>  <dataset>  (494) 
FreeSolv

$$$$
methyl octanoate
     RDKit          3D

 29 28  0  0  0  0  0  0  0  0999 V2000
    0.7441    0.1624   -0.7797 C   0  0  0  0  0  0  0  0  0  0  0  0
    1.0047   -1.1133   -1.5648 C   0  0  0  0  0  0  0  0  0  0  0  0
    1.5223   -2.2315   -0.6606 C   0  0  0  0  0  0  0  0  0  0  0  0
    1.7832   -3.5129   -1.4542 C   0  0  0  0  0  0  0  0  0  0  0  0
    2.3013   -4.6323   -0.5488 C   0  0  0  0  0  0  0  0  0  0  0  0
    2.5620   -5.9146   -1.3454 C   0  0  0  0  0  0  0  0  0  0  0  0
    3.0811   -7.0525   -0.4666 C   0  0  0  0  0  0  0  0  0  0  0  0
    3.3443   -8.3276   -1.2367 C   0  0  0  0  0  0  0  0  0  0  0  0
    3.1721   -8.4734   -2.4391 O   0  0  0  0  0  0  0  0  0  0  0  0
    3.8317   -9.2715   -0.3779 O   0  0  0  0  0  0  0  0  0  0  0  0
    4.1605  -10.5326   -0.9699 C   0  0  0  0  0  0  0  0  0  0  0  0
    0.3739    0.9575   -1.4349 H   0  0  0  0  0  0  0  0  0  0  0  0
    1.6578    0.5164   -0.2915 H   0  0  0  0  0  0  0  0  0  0  0  0
   -0.0077   -0.0165   -0.0047 H   0  0  0  0  0  0  0  0  0  0  0  0
    0.0766   -1.4299   -2.0548 H   0  0  0  0  0  0  0  0  0  0  0  0
    1.7348   -0.9058   -2.3559 H   0  0  0  0  0  0  0  0  0  0  0  0
    2.4483   -1.9082   -0.1697 H   0  0  0  0  0  0  0  0  0  0  0  0
    0.7902   -2.4322    0.1310 H   0  0  0  0  0  0  0  0  0  0  0  0
    2.5153   -3.3120   -2.2457 H   0  0  0  0  0  0  0  0  0  0  0  0
    0.8570   -3.8363   -1.9445 H   0  0  0  0  0  0  0  0  0  0  0  0
    3.2293   -4.3088   -0.0617 H   0  0  0  0  0  0  0  0  0  0  0  0
    1.5709   -4.8243    0.2456 H   0  0  0  0  0  0  0  0  0  0  0  0
    1.6461   -6.2231   -1.8637 H   0  0  0  0  0  0  0  0  0  0  0  0
    3.3111   -5.7052   -2.1189 H   0  0  0  0  0  0  0  0  0  0  0  0
    4.0300   -6.7493   -0.0097 H   0  0  0  0  0  0  0  0  0  0  0  0
    2.3608   -7.2585    0.3332 H   0  0  0  0  0  0  0  0  0  0  0  0
    4.5351  -11.1961   -0.1938 H   0  0  0  0  0  0  0  0  0  0  0  0
    4.9133  -10.3724   -1.7386 H   0  0  0  0  0  0  0  0  0  0  0  0
    3.2569  -10.9466   -1.4116 H   0  0  0  0  0  0  0  0  0  0  0  0
  1  2  1  0
  2  3  1  0
  3  4  1  0
  4  5  1  0
  5  6  1  0
  6  7  1  0
  7  8  1  0
  8  9  2  0
  8 10  1  0
 10 11  1  0
  1 12  1  0
  1 13  1  0
  1 14  1  0
  2 15  1  0
  2 16  1  0
  3 17  1  0
  3 18  1  0
  4 19  1  0
  4 20  1  0
  5 21  1  0
  5 22  1  0
  6 23  1  0
  6 24  1  0
  7 25  1  0
  7 26  1  0
 11 27  1  0
 11 28  1  0
 11 29  1  0
M  END
>  <_TriposChargeType>  (495) 
USER_CHARGES

>  <solvdG>  (495) 
-2.04

>  <fdG>  (495) 
-3.04

>  <fname>  (495) 
mobley_7608435

>  <cname>  (495) 
 methyl octanoate

>  <dataset>  (495) 
FreeSolv

$$$$
chlorobenzene
     RDKit          3D

 12 12  0  0  0  0  0  0  0  0999 V2000
    1.8851   -1.0363   -0.1124 C   0  0  0  0  0  0  0  0  0  0  0  0
    2.9210   -1.6309    0.6081 C   0  0  0  0  0  0  0  0  0  0  0  0
    2.8783   -1.6520    2.0022 C   0  0  0  0  0  0  0  0  0  0  0  0
    1.7997   -1.0786    2.6757 C   0  0  0  0  0  0  0  0  0  0  0  0
    0.7638   -0.4841    1.9551 C   0  0  0  0  0  0  0  0  0  0  0  0
    0.8066   -0.4630    0.5610 C   0  0  0  0  0  0  0  0  0  0  0  0
    1.7476   -1.1039    4.3957 Cl  0  0  0  0  0  0  0  0  0  0  0  0
    1.9184   -1.0200   -1.1979 H   0  0  0  0  0  0  0  0  0  0  0  0
    3.7607   -2.0771    0.0834 H   0  0  0  0  0  0  0  0  0  0  0  0
    3.6929   -2.1190    2.5501 H   0  0  0  0  0  0  0  0  0  0  0  0
   -0.0833   -0.0334    2.4660 H   0  0  0  0  0  0  0  0  0  0  0  0
    0.0002   -0.0001   -0.0003 H   0  0  0  0  0  0  0  0  0  0  0  0
  1  6  2  0
  1  2  1  0
  2  3  2  0
  3  4  1  0
  4  5  2  0
  5  6  1  0
  4  7  1  0
  1  8  1  0
  2  9  1  0
  3 10  1  0
  5 11  1  0
  6 12  1  0
M  END
>  <_TriposChargeType>  (496) 
USER_CHARGES

>  <solvdG>  (496) 
-1.12

>  <fdG>  (496) 
-0.47

>  <fname>  (496) 
mobley_7608462

>  <cname>  (496) 
 chlorobenzene

>  <dataset>  (496) 
FreeSolv

$$$$
(3R)-2-methylpentan-3-ol
     RDKit          3D

 21 20  0  0  0  0  0  0  0  0999 V2000
    3.2784    0.1292   -0.4291 C   0  0  0  0  0  0  0  0  0  0  0  0
    1.9819    0.8864   -0.1674 C   0  0  0  0  0  0  0  0  0  0  0  0
    2.0054    1.6542    1.1619 C   0  0  2  0  0  0  0  0  0  0  0  0
    2.1569    0.9449    1.9854 H   0  0  0  0  0  0  0  0  0  0  0  0
    0.6961    2.4338    1.4237 C   0  0  0  0  0  0  0  0  0  0  0  0
   -0.5414    1.5330    1.4850 C   0  0  0  0  0  0  0  0  0  0  0  0
    0.7991    3.2369    2.7256 C   0  0  0  0  0  0  0  0  0  0  0  0
    3.1027    2.5655    1.1730 O   0  0  0  0  0  0  0  0  0  0  0  0
    3.2164   -0.4017   -1.3846 H   0  0  0  0  0  0  0  0  0  0  0  0
    3.4741   -0.6124    0.3512 H   0  0  0  0  0  0  0  0  0  0  0  0
    4.1305    0.8144   -0.4775 H   0  0  0  0  0  0  0  0  0  0  0  0
    1.8137    1.5846   -0.9954 H   0  0  0  0  0  0  0  0  0  0  0  0
    1.1647    0.1564   -0.1712 H   0  0  0  0  0  0  0  0  0  0  0  0
    0.5534    3.1503    0.6043 H   0  0  0  0  0  0  0  0  0  0  0  0
   -1.4486    2.1154    1.6712 H   0  0  0  0  0  0  0  0  0  0  0  0
   -0.6799    0.9720    0.5550 H   0  0  0  0  0  0  0  0  0  0  0  0
   -0.4498    0.8081    2.3013 H   0  0  0  0  0  0  0  0  0  0  0  0
   -0.1275    3.7901    2.9132 H   0  0  0  0  0  0  0  0  0  0  0  0
    1.6140    3.9659    2.6688 H   0  0  0  0  0  0  0  0  0  0  0  0
    0.9823    2.5874    3.5881 H   0  0  0  0  0  0  0  0  0  0  0  0
    2.9652    3.1705    0.4281 H   0  0  0  0  0  0  0  0  0  0  0  0
  1  2  1  0
  2  3  1  0
  3  4  1  1
  3  5  1  0
  5  6  1  0
  5  7  1  0
  3  8  1  0
  1  9  1  0
  1 10  1  0
  1 11  1  0
  2 12  1  0
  2 13  1  0
  5 14  1  0
  6 15  1  0
  6 16  1  0
  6 17  1  0
  7 18  1  0
  7 19  1  0
  7 20  1  0
  8 21  1  0
M  END
>  <_TriposChargeType>  (497) 
USER_CHARGES

>  <solvdG>  (497) 
-3.88

>  <fdG>  (497) 
-2.42

>  <fname>  (497) 
mobley_7610437

>  <cname>  (497) 
 2-methylpentan-3-ol

>  <dataset>  (497) 
FreeSolv

$$$$
1,1,2-trichloroethylene
     RDKit          3D

  6  5  0  0  0  0  0  0  0  0999 V2000
   -0.2424    0.3060    0.5885 C   0  0  0  0  0  0  0  0  0  0  0  0
    0.2375   -0.3834   -0.4499 C   0  0  0  0  0  0  0  0  0  0  0  0
    0.7818   -2.0179   -0.3331 Cl  0  0  0  0  0  0  0  0  0  0  0  0
    0.3333    0.3690   -2.0054 Cl  0  0  0  0  0  0  0  0  0  0  0  0
   -0.7978    1.9275    0.5399 Cl  0  0  0  0  0  0  0  0  0  0  0  0
   -0.3287   -0.1033    1.5875 H   0  0  0  0  0  0  0  0  0  0  0  0
  1  2  2  3
  2  3  1  0
  2  4  1  0
  1  5  1  0
  1  6  1  0
M  END
>  <_TriposChargeType>  (498) 
USER_CHARGES

>  <solvdG>  (498) 
-0.44

>  <fdG>  (498) 
0.82

>  <fname>  (498) 
mobley_766666

>  <cname>  (498) 
 1,1,2-trichloroethylene

>  <dataset>  (498) 
FreeSolv

$$$$
(6S)-6-isopropyl-3-methyl-cyclohex-2-en-1-one
     RDKit          3D

 27 27  0  0  0  0  0  0  0  0999 V2000
    0.4168   -2.4713    1.7862 C   0  0  0  0  0  0  0  0  0  0  0  0
    0.1348   -1.2851    0.9101 C   0  0  0  0  0  0  0  0  0  0  0  0
    1.1305   -0.5499    0.3923 C   0  0  0  0  0  0  0  0  0  0  0  0
    0.8423    0.5828   -0.5258 C   0  0  0  0  0  0  0  0  0  0  0  0
    1.7747    1.2728   -0.9347 O   0  0  0  0  0  0  0  0  0  0  0  0
   -0.5968    0.7849   -0.9840 C   0  0  1  0  0  0  0  0  0  0  0  0
   -0.7641    0.1055   -1.8296 H   0  0  0  0  0  0  0  0  0  0  0  0
   -1.5537    0.4359    0.1550 C   0  0  0  0  0  0  0  0  0  0  0  0
   -1.3205   -0.9869    0.6592 C   0  0  0  0  0  0  0  0  0  0  0  0
   -0.8281    2.2169   -1.4583 C   0  0  0  0  0  0  0  0  0  0  0  0
   -2.0650    2.2946   -2.3510 C   0  0  0  0  0  0  0  0  0  0  0  0
   -0.9666    3.1623   -0.2667 C   0  0  0  0  0  0  0  0  0  0  0  0
    0.5064   -3.3772    1.1808 H   0  0  0  0  0  0  0  0  0  0  0  0
   -0.3916   -2.6102    2.5094 H   0  0  0  0  0  0  0  0  0  0  0  0
    1.3495   -2.3229    2.3374 H   0  0  0  0  0  0  0  0  0  0  0  0
    2.1730   -0.7675    0.5968 H   0  0  0  0  0  0  0  0  0  0  0  0
   -1.4135    1.1378    0.9883 H   0  0  0  0  0  0  0  0  0  0  0  0
   -2.5945    0.5377   -0.1749 H   0  0  0  0  0  0  0  0  0  0  0  0
   -1.8939   -1.1209    1.5842 H   0  0  0  0  0  0  0  0  0  0  0  0
   -1.7087   -1.7093   -0.0694 H   0  0  0  0  0  0  0  0  0  0  0  0
    0.0423    2.5309   -2.0477 H   0  0  0  0  0  0  0  0  0  0  0  0
   -2.2418    3.3185   -2.6983 H   0  0  0  0  0  0  0  0  0  0  0  0
   -2.9566    1.9623   -1.8091 H   0  0  0  0  0  0  0  0  0  0  0  0
   -1.9501    1.6537   -3.2315 H   0  0  0  0  0  0  0  0  0  0  0  0
   -1.1331    4.1943   -0.5942 H   0  0  0  0  0  0  0  0  0  0  0  0
   -0.0625    3.1447    0.3511 H   0  0  0  0  0  0  0  0  0  0  0  0
   -1.8102    2.8679    0.3665 H   0  0  0  0  0  0  0  0  0  0  0  0
  1  2  1  0
  2  9  1  0
  2  3  2  0
  3  4  1  0
  4  5  2  0
  4  6  1  0
  6  7  1  6
  6  8  1  0
  8  9  1  0
  6 10  1  0
 10 11  1  0
 10 12  1  0
  1 13  1  0
  1 14  1  0
  1 15  1  0
  3 16  1  0
  8 17  1  0
  8 18  1  0
  9 19  1  0
  9 20  1  0
 10 21  1  0
 11 22  1  0
 11 23  1  0
 11 24  1  0
 12 25  1  0
 12 26  1  0
 12 27  1  0
M  END
>  <_TriposChargeType>  (499) 
USER_CHARGES

>  <solvdG>  (499) 
-4.51

>  <fdG>  (499) 
-3.83

>  <fname>  (499) 
mobley_7676709

>  <cname>  (499) 
 6-isopropyl-3-methyl-1-cyclohex-2-enone

>  <dataset>  (499) 
FreeSolv

$$$$
3-hydroxybenzaldehyde
     RDKit          3D

 15 15  0  0  0  0  0  0  0  0999 V2000
    1.8851   -1.0363   -0.1124 C   0  0  0  0  0  0  0  0  0  0  0  0
    2.9210   -1.6309    0.6081 C   0  0  0  0  0  0  0  0  0  0  0  0
    2.8783   -1.6520    2.0022 C   0  0  0  0  0  0  0  0  0  0  0  0
    1.7997   -1.0786    2.6757 C   0  0  0  0  0  0  0  0  0  0  0  0
    0.7638   -0.4841    1.9551 C   0  0  0  0  0  0  0  0  0  0  0  0
    0.8066   -0.4630    0.5610 C   0  0  0  0  0  0  0  0  0  0  0  0
   -0.2884    0.0755    2.6123 O   0  0  0  0  0  0  0  0  0  0  0  0
    3.9591   -2.2701    2.7539 C   0  0  0  0  0  0  0  0  0  0  0  0
    4.9402   -2.7922    2.2175 O   0  0  0  0  0  0  0  0  0  0  0  0
    1.9186   -1.0197   -1.1978 H   0  0  0  0  0  0  0  0  0  0  0  0
    3.7567   -2.0750    0.0736 H   0  0  0  0  0  0  0  0  0  0  0  0
    1.7613   -1.0928    3.7626 H   0  0  0  0  0  0  0  0  0  0  0  0
    0.0023   -0.0020   -0.0059 H   0  0  0  0  0  0  0  0  0  0  0  0
   -0.9228    0.4458    1.9780 H   0  0  0  0  0  0  0  0  0  0  0  0
    3.8802   -2.2627    3.8629 H   0  0  0  0  0  0  0  0  0  0  0  0
  1  6  2  0
  1  2  1  0
  2  3  2  0
  3  4  1  0
  4  5  2  0
  5  6  1  0
  5  7  1  0
  3  8  1  0
  8  9  2  0
  1 10  1  0
  2 11  1  0
  4 12  1  0
  6 13  1  0
  7 14  1  0
  8 15  1  0
M  END
>  <_TriposChargeType>  (500) 
USER_CHARGES

>  <solvdG>  (500) 
-9.52

>  <fdG>  (500) 
-9.37

>  <fname>  (500) 
mobley_7688753

>  <cname>  (500) 
 3-hydroxybenzaldehyde

>  <dataset>  (500) 
FreeSolv

$$$$
(methyldisulfanyl)methane
     RDKit          3D

 10  9  0  0  0  0  0  0  0  0999 V2000
    0.8115   -0.6598    0.3193 C   0  0  0  0  0  0  0  0  0  0  0  0
    0.2411   -1.6598    1.7146 S   0  0  0  0  0  0  0  0  0  0  0  0
    1.8940   -2.8212    2.1001 S   0  0  0  0  0  0  0  0  0  0  0  0
    1.5891   -4.2574    1.0432 C   0  0  0  0  0  0  0  0  0  0  0  0
    0.0179    0.0205    0.0005 H   0  0  0  0  0  0  0  0  0  0  0  0
    1.0814   -1.3094   -0.5170 H   0  0  0  0  0  0  0  0  0  0  0  0
    1.6861   -0.0752    0.6146 H   0  0  0  0  0  0  0  0  0  0  0  0
    2.4067   -4.9719    1.1503 H   0  0  0  0  0  0  0  0  0  0  0  0
    1.5236   -3.9383    0.0018 H   0  0  0  0  0  0  0  0  0  0  0  0
    0.6521   -4.7342    1.3347 H   0  0  0  0  0  0  0  0  0  0  0  0
  1  2  1  0
  2  3  1  0
  3  4  1  0
  1  5  1  0
  1  6  1  0
  1  7  1  0
  4  8  1  0
  4  9  1  0
  4 10  1  0
M  END
>  <_TriposChargeType>  (501) 
USER_CHARGES

>  <solvdG>  (501) 
-1.83

>  <fdG>  (501) 
-0.09

>  <fname>  (501) 
mobley_7690440

>  <cname>  (501) 
 methyldisulfanylmethane

>  <dataset>  (501) 
FreeSolv

$$$$
1-bromopropane
     RDKit          3D

 11 10  0  0  0  0  0  0  0  0999 V2000
   -0.8961    0.1363   -0.9997 C   0  0  0  0  0  0  0  0  0  0  0  0
   -0.3515    0.1886    0.4185 C   0  0  0  0  0  0  0  0  0  0  0  0
    1.0884   -0.2893    0.4719 C   0  0  0  0  0  0  0  0  0  0  0  0
    1.7434   -0.2055    2.3032 Br  0  0  0  0  0  0  0  0  0  0  0  0
   -1.9338    0.4837   -1.0206 H   0  0  0  0  0  0  0  0  0  0  0  0
   -0.3105    0.7753   -1.6686 H   0  0  0  0  0  0  0  0  0  0  0  0
   -0.8721   -0.8856   -1.3916 H   0  0  0  0  0  0  0  0  0  0  0  0
   -0.9818   -0.4310    1.0679 H   0  0  0  0  0  0  0  0  0  0  0  0
   -0.4249    1.2167    0.7933 H   0  0  0  0  0  0  0  0  0  0  0  0
    1.7520    0.3411   -0.1264 H   0  0  0  0  0  0  0  0  0  0  0  0
    1.1869   -1.3303    0.1521 H   0  0  0  0  0  0  0  0  0  0  0  0
  1  2  1  0
  2  3  1  0
  3  4  1  0
  1  5  1  0
  1  6  1  0
  1  7  1  0
  2  8  1  0
  2  9  1  0
  3 10  1  0
  3 11  1  0
M  END
>  <_TriposChargeType>  (502) 
USER_CHARGES

>  <solvdG>  (502) 
-0.56

>  <fdG>  (502) 
0.58

>  <fname>  (502) 
mobley_7708038

>  <cname>  (502) 
 1-bromopropane

>  <dataset>  (502) 
FreeSolv

$$$$
bromo(trifluoro)methane
     RDKit          3D

  5  4  0  0  0  0  0  0  0  0999 V2000
    0.0402   -0.0264   -0.0761 C   0  0  0  0  0  0  0  0  0  0  0  0
    1.2209    0.6099   -0.2543 F   0  0  0  0  0  0  0  0  0  0  0  0
    0.2904   -1.3558   -0.0650 F   0  0  0  0  0  0  0  0  0  0  0  0
   -0.7317    0.2349   -1.1562 F   0  0  0  0  0  0  0  0  0  0  0  0
   -0.8198    0.5373    1.5516 Br  0  0  0  0  0  0  0  0  0  0  0  0
  1  2  1  0
  1  3  1  0
  1  4  1  0
  1  5  1  0
M  END
>  <_TriposChargeType>  (503) 
USER_CHARGES

>  <solvdG>  (503) 
1.79

>  <fdG>  (503) 
1.56

>  <fname>  (503) 
mobley_7732703

>  <cname>  (503) 
 bromo-trifluoro-methane

>  <dataset>  (503) 
FreeSolv

$$$$
imidazole
     RDKit          3D

  9  9  0  0  0  0  0  0  0  0999 V2000
    0.6549   -0.7784   -0.3640 C   0  0  0  0  0  0  0  0  0  0  0  0
    1.9499   -0.7740   -0.8259 C   0  0  0  0  0  0  0  0  0  0  0  0
    2.3537   -2.0366   -1.1813 N   0  0  0  0  0  0  0  0  0  0  0  0
    1.3133   -2.8020   -0.9371 C   0  0  0  0  0  0  0  0  0  0  0  0
    0.2603   -2.0844   -0.4416 N   0  0  0  0  0  0  0  0  0  0  0  0
    0.0003   -0.0000    0.0005 H   0  0  0  0  0  0  0  0  0  0  0  0
    2.6117    0.0744   -0.9217 H   0  0  0  0  0  0  0  0  0  0  0  0
    1.2583   -3.8695   -1.0948 H   0  0  0  0  0  0  0  0  0  0  0  0
   -0.6437   -2.4533   -0.1784 H   0  0  0  0  0  0  0  0  0  0  0  0
  1  5  1  0
  1  2  2  0
  2  3  1  0
  3  4  2  0
  4  5  1  0
  1  6  1  0
  2  7  1  0
  4  8  1  0
  5  9  1  0
M  END
>  <_TriposChargeType>  (504) 
USER_CHARGES

>  <solvdG>  (504) 
-9.63

>  <fdG>  (504) 
-7.97

>  <fname>  (504) 
mobley_7735340

>  <cname>  (504) 
 imidazole

>  <dataset>  (504) 
FreeSolv

$$$$
diethoxyphosphinothioylsulfanylmethylsulfanyl-diethoxy-thioxo-$l^{5}-phosphane
     RDKit          3D

 41 40  0  0  0  0  0  0  0  0999 V2000
   -0.2584   -1.5437    4.1069 C   0  0  0  0  0  0  0  0  0  0  0  0
   -0.5994   -2.2225    2.7974 C   0  0  0  0  0  0  0  0  0  0  0  0
    0.5968   -2.4552    2.0727 O   0  0  0  0  0  0  0  0  0  0  0  0
    0.5493   -3.1803    0.6075 P   0  0  0  0  0  5  0  0  0  0  0  0
   -0.2306   -4.9783    0.6911 S   0  0  0  0  0  0  0  0  0  0  0  0
    2.1586   -3.2115    0.3198 O   0  0  0  0  0  0  0  0  0  0  0  0
    2.6611   -3.7694   -0.8828 C   0  0  0  0  0  0  0  0  0  0  0  0
    4.1720   -3.6658   -0.8831 C   0  0  0  0  0  0  0  0  0  0  0  0
   -0.2874   -1.7696   -0.7467 S   0  0  0  0  0  0  0  0  0  0  0  0
    0.8335   -0.3538   -0.7023 C   0  0  0  0  0  0  0  0  0  0  0  0
    0.2955    0.9766   -1.7997 S   0  0  0  0  0  0  0  0  0  0  0  0
    1.7338    2.5354   -1.6047 P   0  0  0  0  0  5  0  0  0  0  0  0
    1.4859    4.1707   -2.6577 S   0  0  0  0  0  0  0  0  0  0  0  0
    3.2102    1.8703   -1.8274 O   0  0  0  0  0  0  0  0  0  0  0  0
    3.5274    1.2256   -3.0496 C   0  0  0  0  0  0  0  0  0  0  0  0
    4.9484    0.7064   -2.9811 C   0  0  0  0  0  0  0  0  0  0  0  0
    1.8329    2.9088   -0.0156 O   0  0  0  0  0  0  0  0  0  0  0  0
    0.6968    3.3698    0.6958 C   0  0  0  0  0  0  0  0  0  0  0  0
    1.0870    3.6332    2.1353 C   0  0  0  0  0  0  0  0  0  0  0  0
   -1.1614   -1.3491    4.6923 H   0  0  0  0  0  0  0  0  0  0  0  0
    0.4197   -2.1665    4.6994 H   0  0  0  0  0  0  0  0  0  0  0  0
    0.2570   -0.5945    3.9266 H   0  0  0  0  0  0  0  0  0  0  0  0
   -1.2578   -1.5882    2.1964 H   0  0  0  0  0  0  0  0  0  0  0  0
   -1.0937   -3.1814    2.9793 H   0  0  0  0  0  0  0  0  0  0  0  0
    2.3495   -4.8170   -0.9447 H   0  0  0  0  0  0  0  0  0  0  0  0
    2.2396   -3.2208   -1.7312 H   0  0  0  0  0  0  0  0  0  0  0  0
    4.5932   -4.0883   -1.7996 H   0  0  0  0  0  0  0  0  0  0  0  0
    4.4866   -2.6204   -0.7986 H   0  0  0  0  0  0  0  0  0  0  0  0
    4.5946   -4.1958   -0.0230 H   0  0  0  0  0  0  0  0  0  0  0  0
    1.8285   -0.6853   -1.0112 H   0  0  0  0  0  0  0  0  0  0  0  0
    0.9049    0.0275    0.3192 H   0  0  0  0  0  0  0  0  0  0  0  0
    2.8257    0.4003   -3.2074 H   0  0  0  0  0  0  0  0  0  0  0  0
    3.4219    1.9453   -3.8677 H   0  0  0  0  0  0  0  0  0  0  0  0
    5.2261    0.2019   -3.9108 H   0  0  0  0  0  0  0  0  0  0  0  0
    5.6504    1.5271   -2.8009 H   0  0  0  0  0  0  0  0  0  0  0  0
    5.0616    0.0025   -2.1499 H   0  0  0  0  0  0  0  0  0  0  0  0
    0.3317    4.2880    0.2244 H   0  0  0  0  0  0  0  0  0  0  0  0
   -0.0869    2.6070    0.6453 H   0  0  0  0  0  0  0  0  0  0  0  0
    0.2309    3.9913    2.7139 H   0  0  0  0  0  0  0  0  0  0  0  0
    1.4733    2.7216    2.6028 H   0  0  0  0  0  0  0  0  0  0  0  0
    1.8858    4.3805    2.1871 H   0  0  0  0  0  0  0  0  0  0  0  0
  1  2  1  0
  2  3  1  0
  3  4  1  0
  4  5  2  0
  4  6  1  0
  6  7  1  0
  7  8  1  0
  4  9  1  0
  9 10  1  0
 10 11  1  0
 11 12  1  0
 12 13  2  0
 12 14  1  0
 14 15  1  0
 15 16  1  0
 12 17  1  0
 17 18  1  0
 18 19  1  0
  1 20  1  0
  1 21  1  0
  1 22  1  0
  2 23  1  0
  2 24  1  0
  7 25  1  0
  7 26  1  0
  8 27  1  0
  8 28  1  0
  8 29  1  0
 10 30  1  0
 10 31  1  0
 15 32  1  0
 15 33  1  0
 16 34  1  0
 16 35  1  0
 16 36  1  0
 18 37  1  0
 18 38  1  0
 19 39  1  0
 19 40  1  0
 19 41  1  0
M  END
>  <_TriposChargeType>  (505) 
USER_CHARGES

>  <solvdG>  (505) 
-6.1

>  <fdG>  (505) 
-10.64

>  <fname>  (505) 
mobley_7754849

>  <cname>  (505) 
 ethion

>  <dataset>  (505) 
FreeSolv

$$$$
propionic acid
     RDKit          3D

 11 10  0  0  0  0  0  0  0  0999 V2000
    0.7690   -0.5809   -0.5200 C   0  0  0  0  0  0  0  0  0  0  0  0
    0.3923   -0.8062   -1.9738 C   0  0  0  0  0  0  0  0  0  0  0  0
   -0.9082   -1.5561   -2.1106 C   0  0  0  0  0  0  0  0  0  0  0  0
   -1.6105   -1.9554   -1.1941 O   0  0  0  0  0  0  0  0  0  0  0  0
   -1.2065   -1.7349   -3.4232 O   0  0  0  0  0  0  0  0  0  0  0  0
    1.7152   -0.0354   -0.4515 H   0  0  0  0  0  0  0  0  0  0  0  0
    0.0002    0.0003   -0.0001 H   0  0  0  0  0  0  0  0  0  0  0  0
    0.8833   -1.5331    0.0087 H   0  0  0  0  0  0  0  0  0  0  0  0
    0.2897    0.1613   -2.4762 H   0  0  0  0  0  0  0  0  0  0  0  0
    1.1801   -1.3852   -2.4671 H   0  0  0  0  0  0  0  0  0  0  0  0
   -0.5236   -1.3450   -4.0098 H   0  0  0  0  0  0  0  0  0  0  0  0
  1  2  1  0
  2  3  1  0
  3  4  2  0
  3  5  1  0
  1  6  1  0
  1  7  1  0
  1  8  1  0
  2  9  1  0
  2 10  1  0
  5 11  1  0
M  END
>  <_TriposChargeType>  (506) 
USER_CHARGES

>  <solvdG>  (506) 
-6.46

>  <fdG>  (506) 
-9.09

>  <fname>  (506) 
mobley_7758918

>  <cname>  (506) 
 propionic acid

>  <dataset>  (506) 
FreeSolv

$$$$
1-bromo-2-chloro-ethane
     RDKit          3D

  8  7  0  0  0  0  0  0  0  0999 V2000
   -0.2688    0.5219    0.4902 C   0  0  0  0  0  0  0  0  0  0  0  0
    0.2376   -0.5482   -0.4514 C   0  0  0  0  0  0  0  0  0  0  0  0
    1.3408    0.2696   -1.8321 Br  0  0  0  0  0  0  0  0  0  0  0  0
   -1.2788   -0.2086    1.7582 Cl  0  0  0  0  0  0  0  0  0  0  0  0
    0.5554    1.0471    0.9831 H   0  0  0  0  0  0  0  0  0  0  0  0
   -0.8793    1.2635   -0.0349 H   0  0  0  0  0  0  0  0  0  0  0  0
   -0.5760   -1.0636   -0.9693 H   0  0  0  0  0  0  0  0  0  0  0  0
    0.8700   -1.2817    0.0566 H   0  0  0  0  0  0  0  0  0  0  0  0
  1  2  1  0
  2  3  1  0
  1  4  1  0
  1  5  1  0
  1  6  1  0
  2  7  1  0
  2  8  1  0
M  END
>  <_TriposChargeType>  (507) 
USER_CHARGES

>  <solvdG>  (507) 
-1.95

>  <fdG>  (507) 
-0.8

>  <fname>  (507) 
mobley_7768165

>  <cname>  (507) 
 1-bromo-2-chloro-ethane

>  <dataset>  (507) 
FreeSolv

$$$$
2-bromo-2-methyl-propane
     RDKit          3D

 14 13  0  0  0  0  0  0  0  0999 V2000
    0.2695   -1.1203    0.8963 C   0  0  0  0  0  0  0  0  0  0  0  0
    0.0165    0.2357    0.2412 C   0  0  0  0  0  0  0  0  0  0  0  0
   -1.3794    0.2973   -0.3751 C   0  0  0  0  0  0  0  0  0  0  0  0
    1.0913    0.5552   -0.7955 C   0  0  0  0  0  0  0  0  0  0  0  0
    0.1126    1.6122    1.6510 Br  0  0  0  0  0  0  0  0  0  0  0  0
    1.2701   -1.1722    1.3413 H   0  0  0  0  0  0  0  0  0  0  0  0
   -0.4550   -1.3241    1.6935 H   0  0  0  0  0  0  0  0  0  0  0  0
    0.1910   -1.9299    0.1621 H   0  0  0  0  0  0  0  0  0  0  0  0
   -1.5688    1.2681   -0.8476 H   0  0  0  0  0  0  0  0  0  0  0  0
   -1.5154   -0.4731   -1.1429 H   0  0  0  0  0  0  0  0  0  0  0  0
   -2.1508    0.1441    0.3880 H   0  0  0  0  0  0  0  0  0  0  0  0
    0.9163    1.5276   -1.2704 H   0  0  0  0  0  0  0  0  0  0  0  0
    1.1202   -0.1982   -1.5914 H   0  0  0  0  0  0  0  0  0  0  0  0
    2.0838    0.5861   -0.3324 H   0  0  0  0  0  0  0  0  0  0  0  0
  1  2  1  0
  2  3  1  0
  2  4  1  0
  2  5  1  0
  1  6  1  0
  1  7  1  0
  1  8  1  0
  3  9  1  0
  3 10  1  0
  3 11  1  0
  4 12  1  0
  4 13  1  0
  4 14  1  0
M  END
>  <_TriposChargeType>  (508) 
USER_CHARGES

>  <solvdG>  (508) 
0.84

>  <fdG>  (508) 
0.44

>  <fname>  (508) 
mobley_7769613

>  <cname>  (508) 
 2-bromo-2-methyl-propane

>  <dataset>  (508) 
FreeSolv

$$$$
N-methylaniline
     RDKit          3D

 17 17  0  0  0  0  0  0  0  0999 V2000
    3.0052   -1.5813   -2.2994 C   0  0  0  0  0  0  0  0  0  0  0  0
    1.9290   -1.0140   -1.5220 N   0  0  0  0  0  0  0  0  0  0  0  0
    1.8851   -1.0363   -0.1124 C   0  0  0  0  0  0  0  0  0  0  0  0
    2.9210   -1.6309    0.6081 C   0  0  0  0  0  0  0  0  0  0  0  0
    2.8783   -1.6520    2.0022 C   0  0  0  0  0  0  0  0  0  0  0  0
    1.7997   -1.0786    2.6757 C   0  0  0  0  0  0  0  0  0  0  0  0
    0.7638   -0.4841    1.9551 C   0  0  0  0  0  0  0  0  0  0  0  0
    0.8066   -0.4630    0.5610 C   0  0  0  0  0  0  0  0  0  0  0  0
    2.8131   -1.4403   -3.3662 H   0  0  0  0  0  0  0  0  0  0  0  0
    3.0944   -2.6520   -2.0964 H   0  0  0  0  0  0  0  0  0  0  0  0
    3.9516   -1.0965   -2.0451 H   0  0  0  0  0  0  0  0  0  0  0  0
    1.1623   -0.5736   -2.0182 H   0  0  0  0  0  0  0  0  0  0  0  0
    3.7666   -2.0796    0.0935 H   0  0  0  0  0  0  0  0  0  0  0  0
    3.6851   -2.1139    2.5639 H   0  0  0  0  0  0  0  0  0  0  0  0
    1.7657   -1.0953    3.7611 H   0  0  0  0  0  0  0  0  0  0  0  0
   -0.0755   -0.0368    2.4794 H   0  0  0  0  0  0  0  0  0  0  0  0
   -0.0061    0.0030    0.0092 H   0  0  0  0  0  0  0  0  0  0  0  0
  1  2  1  0
  2  3  1  0
  3  8  2  0
  3  4  1  0
  4  5  2  0
  5  6  1  0
  6  7  2  0
  7  8  1  0
  1  9  1  0
  1 10  1  0
  1 11  1  0
  2 12  1  0
  4 13  1  0
  5 14  1  0
  6 15  1  0
  7 16  1  0
  8 17  1  0
M  END
>  <_TriposChargeType>  (509) 
USER_CHARGES

>  <solvdG>  (509) 
-4.69

>  <fdG>  (509) 
-5.72

>  <fname>  (509) 
mobley_7774695

>  <cname>  (509) 
 N-methylaniline

>  <dataset>  (509) 
FreeSolv

$$$$
2-methylbut-2-ene
     RDKit          3D

 15 14  0  0  0  0  0  0  0  0999 V2000
   -0.9435   -0.4100    0.3920 C   0  0  0  0  0  0  0  0  0  0  0  0
   -1.3569    0.2480    1.6461 C   0  0  0  0  0  0  0  0  0  0  0  0
   -2.4533   -0.0044    2.3864 C   0  0  0  0  0  0  0  0  0  0  0  0
   -2.7323    0.7616    3.6496 C   0  0  0  0  0  0  0  0  0  0  0  0
   -3.4775   -1.0459    2.0346 C   0  0  0  0  0  0  0  0  0  0  0  0
   -1.3486    0.0987   -0.4963 H   0  0  0  0  0  0  0  0  0  0  0  0
    0.1477   -0.4206    0.2574 H   0  0  0  0  0  0  0  0  0  0  0  0
   -1.2926   -1.4502    0.3230 H   0  0  0  0  0  0  0  0  0  0  0  0
   -0.6780    1.0254    1.9917 H   0  0  0  0  0  0  0  0  0  0  0  0
   -3.3278    1.6534    3.4285 H   0  0  0  0  0  0  0  0  0  0  0  0
   -3.2895    0.1376    4.3561 H   0  0  0  0  0  0  0  0  0  0  0  0
   -1.8145    1.0901    4.1485 H   0  0  0  0  0  0  0  0  0  0  0  0
   -3.2088   -2.0065    2.4865 H   0  0  0  0  0  0  0  0  0  0  0  0
   -4.4617   -0.7495    2.4120 H   0  0  0  0  0  0  0  0  0  0  0  0
   -3.5723   -1.2044    0.9566 H   0  0  0  0  0  0  0  0  0  0  0  0
  1  2  1  0
  2  3  2  3
  3  4  1  0
  3  5  1  0
  1  6  1  0
  1  7  1  0
  1  8  1  0
  2  9  1  0
  4 10  1  0
  4 11  1  0
  4 12  1  0
  5 13  1  0
  5 14  1  0
  5 15  1  0
M  END
>  <_TriposChargeType>  (510) 
USER_CHARGES

>  <solvdG>  (510) 
1.31

>  <fdG>  (510) 
2.27

>  <fname>  (510) 
mobley_778352

>  <cname>  (510) 
 2-methylbut-2-ene

>  <dataset>  (510) 
FreeSolv

$$$$
5-(trifluoromethyl)-1H-pyrimidine-2,4-dione
     RDKit          3D

 15 15  0  0  0  0  0  0  0  0999 V2000
    1.1618    1.5074    2.5831 C   0  0  0  0  0  0  0  0  0  0  0  0
    0.7828    0.3892    1.9521 C   0  0  0  0  0  0  0  0  0  0  0  0
    1.5361   -0.8685    2.2312 C   0  0  0  0  0  0  0  0  0  0  0  0
    1.2394   -1.9284    1.6861 O   0  0  0  0  0  0  0  0  0  0  0  0
    2.5780   -0.7394    3.1411 N   0  0  0  0  0  0  0  0  0  0  0  0
    2.9645    0.4331    3.7937 C   0  0  0  0  0  0  0  0  0  0  0  0
    3.9018    0.4728    4.5912 O   0  0  0  0  0  0  0  0  0  0  0  0
    2.2042    1.5449    3.4677 N   0  0  0  0  0  0  0  0  0  0  0  0
   -0.3527    0.3290    0.9824 C   0  0  0  0  0  0  0  0  0  0  0  0
   -0.9310    1.5398    0.8360 F   0  0  0  0  0  0  0  0  0  0  0  0
    0.0668   -0.0757   -0.2350 F   0  0  0  0  0  0  0  0  0  0  0  0
   -1.3050   -0.5337    1.3960 F   0  0  0  0  0  0  0  0  0  0  0  0
    0.6610    2.4560    2.4288 H   0  0  0  0  0  0  0  0  0  0  0  0
    3.1104   -1.5787    3.3526 H   0  0  0  0  0  0  0  0  0  0  0  0
    2.4248    2.4360    3.9024 H   0  0  0  0  0  0  0  0  0  0  0  0
  1  8  1  0
  1  2  2  0
  2  3  1  0
  3  4  2  0
  3  5  1  0
  5  6  1  0
  6  7  2  0
  6  8  1  0
  2  9  1  0
  9 10  1  0
  9 11  1  0
  9 12  1  0
  1 13  1  0
  5 14  1  0
  8 15  1  0
M  END
>  <_TriposChargeType>  (511) 
USER_CHARGES

>  <solvdG>  (511) 
-15.46

>  <fdG>  (511) 
-17.35

>  <fname>  (511) 
mobley_7794077

>  <cname>  (511) 
 5-trifluoromethyluracil

>  <dataset>  (511) 
FreeSolv

$$$$
1,2,4-trichlorobenzene
     RDKit          3D

 12 12  0  0  0  0  0  0  0  0999 V2000
    1.8851   -1.0363   -0.1124 C   0  0  0  0  0  0  0  0  0  0  0  0
    2.9210   -1.6309    0.6081 C   0  0  0  0  0  0  0  0  0  0  0  0
    2.8783   -1.6520    2.0022 C   0  0  0  0  0  0  0  0  0  0  0  0
    1.7997   -1.0786    2.6757 C   0  0  0  0  0  0  0  0  0  0  0  0
    0.7638   -0.4841    1.9551 C   0  0  0  0  0  0  0  0  0  0  0  0
    0.8066   -0.4630    0.5610 C   0  0  0  0  0  0  0  0  0  0  0  0
   -0.4718    0.2689   -0.3289 Cl  0  0  0  0  0  0  0  0  0  0  0  0
    1.6887   -1.0745    4.4010 Cl  0  0  0  0  0  0  0  0  0  0  0  0
    4.1903   -2.4058    2.8380 Cl  0  0  0  0  0  0  0  0  0  0  0  0
    1.9312   -1.0278   -1.1985 H   0  0  0  0  0  0  0  0  0  0  0  0
    3.7533   -2.0741    0.0672 H   0  0  0  0  0  0  0  0  0  0  0  0
   -0.0782   -0.0344    2.4772 H   0  0  0  0  0  0  0  0  0  0  0  0
  1  6  2  0
  1  2  1  0
  2  3  2  0
  3  4  1  0
  4  5  2  0
  5  6  1  0
  6  7  1  0
  4  8  1  0
  3  9  1  0
  1 10  1  0
  2 11  1  0
  5 12  1  0
M  END
>  <_TriposChargeType>  (512) 
USER_CHARGES

>  <solvdG>  (512) 
-1.12

>  <fdG>  (512) 
-0.12

>  <fname>  (512) 
mobley_7814642

>  <cname>  (512) 
 1,2,4-trichlorobenzene

>  <dataset>  (512) 
FreeSolv

$$$$
N-butyl-N-ethyl-2,6-dinitro-4-(trifluoromethyl)aniline
     RDKit          3D

 39 39  0  0  0  0  0  0  0  0999 V2000
   -5.9010    4.6440    1.6642 C   0  0  0  0  0  0  0  0  0  0  0  0
   -4.6961    3.7219    1.5608 C   0  0  0  0  0  0  0  0  0  0  0  0
   -3.5857    4.1433    2.5260 C   0  0  0  0  0  0  0  0  0  0  0  0
   -2.3629    3.2356    2.4445 C   0  0  0  0  0  0  0  0  0  0  0  0
   -1.3228    3.6343    3.3520 N   0  0  0  0  0  0  0  0  0  0  0  0
   -0.7513    4.9796    3.2252 C   0  0  0  0  0  0  0  0  0  0  0  0
   -0.1372    5.1463    1.8888 C   0  0  0  0  0  0  0  0  0  0  0  0
   -0.8532    2.7745    4.3598 C   0  0  0  0  0  0  0  0  0  0  0  0
    0.2105    1.9105    4.0997 C   0  0  0  0  0  0  0  0  0  0  0  0
    0.6765    1.0571    5.0999 C   0  0  0  0  0  0  0  0  0  0  0  0
    0.0788    1.0678    6.3601 C   0  0  0  0  0  0  0  0  0  0  0  0
   -0.9850    1.9318    6.6202 C   0  0  0  0  0  0  0  0  0  0  0  0
   -1.4509    2.7852    5.6200 C   0  0  0  0  0  0  0  0  0  0  0  0
   -2.5379    3.6559    5.9147 N   0  0  0  0  0  4  0  0  0  0  0  0
   -3.7070    3.2538    5.7107 O   0  0  0  0  0  0  0  0  0  0  0  0
   -2.2918    4.7975    6.3689 O   0  0  0  0  0  1  0  0  0  0  0  0
    0.5772    0.1556    7.4298 C   0  0  0  0  0  0  0  0  0  0  0  0
    1.6210   -0.6321    7.0349 F   0  0  0  0  0  0  0  0  0  0  0  0
    1.0260    0.8104    8.5413 F   0  0  0  0  0  0  0  0  0  0  0  0
   -0.3834   -0.7057    7.8750 F   0  0  0  0  0  0  0  0  0  0  0  0
    0.8410    1.8774    2.8239 N   0  0  0  0  0  4  0  0  0  0  0  0
    1.8163    2.6351    2.6117 O   0  0  0  0  0  0  0  0  0  0  0  0
    0.4012    1.0917    1.9525 O   0  0  0  0  0  1  0  0  0  0  0  0
   -6.6907    4.3365    0.9712 H   0  0  0  0  0  0  0  0  0  0  0  0
   -6.3108    4.6196    2.6788 H   0  0  0  0  0  0  0  0  0  0  0  0
   -5.6250    5.6780    1.4343 H   0  0  0  0  0  0  0  0  0  0  0  0
   -5.0101    2.6949    1.7807 H   0  0  0  0  0  0  0  0  0  0  0  0
   -4.3270    3.7351    0.5291 H   0  0  0  0  0  0  0  0  0  0  0  0
   -3.2927    5.1800    2.3191 H   0  0  0  0  0  0  0  0  0  0  0  0
   -3.9725    4.1156    3.5520 H   0  0  0  0  0  0  0  0  0  0  0  0
   -1.9415    3.2261    1.4344 H   0  0  0  0  0  0  0  0  0  0  0  0
   -2.6403    2.2098    2.7075 H   0  0  0  0  0  0  0  0  0  0  0  0
   -1.5709    5.6735    3.3820 H   0  0  0  0  0  0  0  0  0  0  0  0
   -0.0230    5.0758    4.0238 H   0  0  0  0  0  0  0  0  0  0  0  0
    0.2972    6.1448    1.7699 H   0  0  0  0  0  0  0  0  0  0  0  0
    0.6363    4.3921    1.7072 H   0  0  0  0  0  0  0  0  0  0  0  0
   -0.9157    5.0235    1.1264 H   0  0  0  0  0  0  0  0  0  0  0  0
    1.5068    0.3817    4.9032 H   0  0  0  0  0  0  0  0  0  0  0  0
   -1.4484    1.9346    7.6048 H   0  0  0  0  0  0  0  0  0  0  0  0
  1  2  1  0
  2  3  1  0
  3  4  1  0
  4  5  1  0
  5  6  1  0
  6  7  1  0
  5  8  1  0
  8 13  2  0
  8  9  1  0
  9 10  2  0
 10 11  1  0
 11 12  2  0
 12 13  1  0
 13 14  1  0
 14 15  2  0
 14 16  1  0
 11 17  1  0
 17 18  1  0
 17 19  1  0
 17 20  1  0
  9 21  1  0
 21 22  2  0
 21 23  1  0
  1 24  1  0
  1 25  1  0
  1 26  1  0
  2 27  1  0
  2 28  1  0
  3 29  1  0
  3 30  1  0
  4 31  1  0
  4 32  1  0
  6 33  1  0
  6 34  1  0
  7 35  1  0
  7 36  1  0
  7 37  1  0
 10 38  1  0
 12 39  1  0
M  CHG  4  14   1  16  -1  21   1  23  -1
M  END
>  <_TriposChargeType>  (513) 
USER_CHARGES

>  <solvdG>  (513) 
-3.51

>  <fdG>  (513) 
-2.3

>  <fname>  (513) 
mobley_7829570

>  <cname>  (513) 
 N-butyl-N-ethyl-2,6-dinitro-4-(trifluoromethyl)aniline

>  <dataset>  (513) 
FreeSolv

$$$$
heptanal
     RDKit          3D

 22 21  0  0  0  0  0  0  0  0999 V2000
   -3.5184   -0.1724    0.1194 C   0  0  0  0  0  0  0  0  0  0  0  0
   -2.1808    0.2198   -0.4874 C   0  0  0  0  0  0  0  0  0  0  0  0
   -1.0132   -0.3836    0.2930 C   0  0  0  0  0  0  0  0  0  0  0  0
    0.3307    0.0137   -0.3211 C   0  0  0  0  0  0  0  0  0  0  0  0
    1.4998   -0.5915    0.4617 C   0  0  0  0  0  0  0  0  0  0  0  0
    2.8533   -0.2109   -0.1297 C   0  0  0  0  0  0  0  0  0  0  0  0
    3.9863   -0.8170    0.6562 C   0  0  0  0  0  0  0  0  0  0  0  0
    3.8176   -1.5246    1.6443 O   0  0  0  0  0  0  0  0  0  0  0  0
   -4.3390    0.2697   -0.4542 H   0  0  0  0  0  0  0  0  0  0  0  0
   -3.5983    0.1790    1.1530 H   0  0  0  0  0  0  0  0  0  0  0  0
   -3.6477   -1.2594    0.1146 H   0  0  0  0  0  0  0  0  0  0  0  0
   -2.0972    1.3127   -0.4974 H   0  0  0  0  0  0  0  0  0  0  0  0
   -2.1461   -0.1178   -1.5297 H   0  0  0  0  0  0  0  0  0  0  0  0
   -1.0546   -0.0459    1.3358 H   0  0  0  0  0  0  0  0  0  0  0  0
   -1.1041   -1.4766    0.3033 H   0  0  0  0  0  0  0  0  0  0  0  0
    0.3722   -0.3259   -1.3633 H   0  0  0  0  0  0  0  0  0  0  0  0
    0.4153    1.1068   -0.3337 H   0  0  0  0  0  0  0  0  0  0  0  0
    1.4098   -1.6844    0.4532 H   0  0  0  0  0  0  0  0  0  0  0  0
    1.4445   -0.2720    1.5095 H   0  0  0  0  0  0  0  0  0  0  0  0
    2.9766    0.8764   -0.1660 H   0  0  0  0  0  0  0  0  0  0  0  0
    2.9297   -0.5951   -1.1525 H   0  0  0  0  0  0  0  0  0  0  0  0
    5.0028   -0.5538    0.3168 H   0  0  0  0  0  0  0  0  0  0  0  0
  1  2  1  0
  2  3  1  0
  3  4  1  0
  4  5  1  0
  5  6  1  0
  6  7  1  0
  7  8  2  0
  1  9  1  0
  1 10  1  0
  1 11  1  0
  2 12  1  0
  2 13  1  0
  3 14  1  0
  3 15  1  0
  4 16  1  0
  4 17  1  0
  5 18  1  0
  5 19  1  0
  6 20  1  0
  6 21  1  0
  7 22  1  0
M  END
>  <_TriposChargeType>  (514) 
USER_CHARGES

>  <solvdG>  (514) 
-2.67

>  <fdG>  (514) 
-2.7

>  <fname>  (514) 
mobley_7859387

>  <cname>  (514) 
 heptanal

>  <dataset>  (514) 
FreeSolv

$$$$
N-butylbutan-1-amine
     RDKit          3D

 28 27  0  0  0  0  0  0  0  0999 V2000
   -6.1945    2.7181    2.8467 C   0  0  0  0  0  0  0  0  0  0  0  0
   -4.8427    2.7601    2.1514 C   0  0  0  0  0  0  0  0  0  0  0  0
   -3.7318    3.1844    3.1148 C   0  0  0  0  0  0  0  0  0  0  0  0
   -2.3629    3.2356    2.4445 C   0  0  0  0  0  0  0  0  0  0  0  0
   -1.3228    3.6343    3.3520 N   0  0  0  0  0  0  0  0  0  0  0  0
   -0.0169    3.6778    2.6921 C   0  0  0  0  0  0  0  0  0  0  0  0
    1.0763    4.0986    3.6528 C   0  0  0  0  0  0  0  0  0  0  0  0
    2.4579    4.1555    2.9970 C   0  0  0  0  0  0  0  0  0  0  0  0
    3.5272    4.5809    3.9911 C   0  0  0  0  0  0  0  0  0  0  0  0
   -6.9837    2.4139    2.1517 H   0  0  0  0  0  0  0  0  0  0  0  0
   -6.1736    2.0001    3.6726 H   0  0  0  0  0  0  0  0  0  0  0  0
   -6.4560    3.6990    3.2562 H   0  0  0  0  0  0  0  0  0  0  0  0
   -4.6196    1.7687    1.7401 H   0  0  0  0  0  0  0  0  0  0  0  0
   -4.8995    3.4568    1.3076 H   0  0  0  0  0  0  0  0  0  0  0  0
   -3.9719    4.1653    3.5434 H   0  0  0  0  0  0  0  0  0  0  0  0
   -3.6862    2.4709    3.9465 H   0  0  0  0  0  0  0  0  0  0  0  0
   -2.3588    3.9338    1.6017 H   0  0  0  0  0  0  0  0  0  0  0  0
   -2.0942    2.2440    2.0666 H   0  0  0  0  0  0  0  0  0  0  0  0
   -1.2650    2.9765    4.1378 H   0  0  0  0  0  0  0  0  0  0  0  0
    0.1522    2.6880    2.2771 H   0  0  0  0  0  0  0  0  0  0  0  0
   -0.1230    4.3937    1.8810 H   0  0  0  0  0  0  0  0  0  0  0  0
    1.1065    3.4216    4.5155 H   0  0  0  0  0  0  0  0  0  0  0  0
    0.8182    5.0946    4.0328 H   0  0  0  0  0  0  0  0  0  0  0  0
    2.4436    4.8636    2.1603 H   0  0  0  0  0  0  0  0  0  0  0  0
    2.7242    3.1744    2.5880 H   0  0  0  0  0  0  0  0  0  0  0  0
    4.5122    4.6193    3.5150 H   0  0  0  0  0  0  0  0  0  0  0  0
    3.3021    5.5763    4.3869 H   0  0  0  0  0  0  0  0  0  0  0  0
    3.5793    3.8843    4.8338 H   0  0  0  0  0  0  0  0  0  0  0  0
  1  2  1  0
  2  3  1  0
  3  4  1  0
  4  5  1  0
  5  6  1  0
  6  7  1  0
  7  8  1  0
  8  9  1  0
  1 10  1  0
  1 11  1  0
  1 12  1  0
  2 13  1  0
  2 14  1  0
  3 15  1  0
  3 16  1  0
  4 17  1  0
  4 18  1  0
  5 19  1  0
  6 20  1  0
  6 21  1  0
  7 22  1  0
  7 23  1  0
  8 24  1  0
  8 25  1  0
  9 26  1  0
  9 27  1  0
  9 28  1  0
M  END
>  <_TriposChargeType>  (515) 
USER_CHARGES

>  <solvdG>  (515) 
-3.24

>  <fdG>  (515) 
-2.08

>  <fname>  (515) 
mobley_7860938

>  <cname>  (515) 
 N-butylbutan-1-amine

>  <dataset>  (515) 
FreeSolv

$$$$
[(1S)-1-methylpropyl] nitrate
     RDKit          3D

 17 16  0  0  0  0  0  0  0  0999 V2000
    0.9784   -0.0326   -0.2360 C   0  0  0  0  0  0  0  0  0  0  0  0
    1.4098    0.6794   -1.5114 C   0  0  0  0  0  0  0  0  0  0  0  0
    0.6395    0.1877   -2.7386 C   0  0  2  0  0  0  0  0  0  0  0  0
    0.8085   -0.8858   -2.8804 H   0  0  0  0  0  0  0  0  0  0  0  0
    1.0608    0.9421   -3.9925 C   0  0  0  0  0  0  0  0  0  0  0  0
   -0.7550    0.3897   -2.5267 O   0  0  0  0  0  0  0  0  0  0  0  0
   -1.5759   -0.4132   -3.3641 N   0  0  0  0  0  4  0  0  0  0  0  0
   -1.0159   -1.1731   -4.1577 O   0  0  0  0  0  0  0  0  0  0  0  0
   -2.7782   -0.2285   -3.1707 O   0  0  0  0  0  1  0  0  0  0  0  0
    1.5425    0.3354    0.6270 H   0  0  0  0  0  0  0  0  0  0  0  0
    1.1302   -1.1138   -0.3115 H   0  0  0  0  0  0  0  0  0  0  0  0
   -0.0850    0.1451   -0.0463 H   0  0  0  0  0  0  0  0  0  0  0  0
    2.4847    0.5237   -1.6590 H   0  0  0  0  0  0  0  0  0  0  0  0
    1.2456    1.7551   -1.3741 H   0  0  0  0  0  0  0  0  0  0  0  0
    0.5068    0.5869   -4.8686 H   0  0  0  0  0  0  0  0  0  0  0  0
    0.8954    2.0183   -3.8841 H   0  0  0  0  0  0  0  0  0  0  0  0
    2.1225    0.7735   -4.2027 H   0  0  0  0  0  0  0  0  0  0  0  0
  1  2  1  0
  2  3  1  0
  3  4  1  6
  3  5  1  0
  3  6  1  0
  6  7  1  0
  7  8  2  0
  7  9  1  0
  1 10  1  0
  1 11  1  0
  1 12  1  0
  2 13  1  0
  2 14  1  0
  5 15  1  0
  5 16  1  0
  5 17  1  0
M  CHG  2   7   1   9  -1
M  END
>  <_TriposChargeType>  (516) 
USER_CHARGES

>  <solvdG>  (516) 
-1.82

>  <fdG>  (516) 
-1.86

>  <fname>  (516) 
mobley_7869158

>  <cname>  (516) 
 [(2S)-butan-2-yl] nitrate

>  <dataset>  (516) 
FreeSolv

$$$$
tert-butylbenzene
     RDKit          3D

 24 24  0  0  0  0  0  0  0  0999 V2000
   -1.0055    0.0255   -0.4341 C   0  0  0  0  0  0  0  0  0  0  0  0
   -2.0904    0.3299    0.6216 C   0  0  0  0  0  0  0  0  0  0  0  0
   -1.7775    1.6835    1.2954 C   0  0  0  0  0  0  0  0  0  0  0  0
   -3.4286    0.4950   -0.1338 C   0  0  0  0  0  0  0  0  0  0  0  0
   -2.1077   -0.7840    1.6815 C   0  0  0  0  0  0  0  0  0  0  0  0
   -3.2652   -1.5357    1.8842 C   0  0  0  0  0  0  0  0  0  0  0  0
   -3.2812   -2.5461    2.8457 C   0  0  0  0  0  0  0  0  0  0  0  0
   -2.1398   -2.8048    3.6045 C   0  0  0  0  0  0  0  0  0  0  0  0
   -0.9823   -2.0532    3.4018 C   0  0  0  0  0  0  0  0  0  0  0  0
   -0.9663   -1.0428    2.4403 C   0  0  0  0  0  0  0  0  0  0  0  0
   -1.1973   -0.9314   -0.9335 H   0  0  0  0  0  0  0  0  0  0  0  0
   -0.9617    0.7913   -1.2163 H   0  0  0  0  0  0  0  0  0  0  0  0
   -0.0121   -0.0317    0.0264 H   0  0  0  0  0  0  0  0  0  0  0  0
   -2.5193    1.9491    2.0564 H   0  0  0  0  0  0  0  0  0  0  0  0
   -0.8014    1.6605    1.7942 H   0  0  0  0  0  0  0  0  0  0  0  0
   -1.7566    2.4953    0.5588 H   0  0  0  0  0  0  0  0  0  0  0  0
   -4.2493    0.7145    0.5597 H   0  0  0  0  0  0  0  0  0  0  0  0
   -3.3865    1.3206   -0.8538 H   0  0  0  0  0  0  0  0  0  0  0  0
   -3.7011   -0.4179   -0.6762 H   0  0  0  0  0  0  0  0  0  0  0  0
   -4.1591   -1.3405    1.2977 H   0  0  0  0  0  0  0  0  0  0  0  0
   -4.1824   -3.1314    3.0033 H   0  0  0  0  0  0  0  0  0  0  0  0
   -2.1519   -3.5916    4.3532 H   0  0  0  0  0  0  0  0  0  0  0  0
   -0.0938   -2.2543    3.9930 H   0  0  0  0  0  0  0  0  0  0  0  0
   -0.0597   -0.4628    2.2894 H   0  0  0  0  0  0  0  0  0  0  0  0
  1  2  1  0
  2  3  1  0
  2  4  1  0
  2  5  1  0
  5 10  2  0
  5  6  1  0
  6  7  2  0
  7  8  1  0
  8  9  2  0
  9 10  1  0
  1 11  1  0
  1 12  1  0
  1 13  1  0
  3 14  1  0
  3 15  1  0
  3 16  1  0
  4 17  1  0
  4 18  1  0
  4 19  1  0
  6 20  1  0
  7 21  1  0
  8 22  1  0
  9 23  1  0
 10 24  1  0
M  END
>  <_TriposChargeType>  (517) 
USER_CHARGES

>  <solvdG>  (517) 
-0.44

>  <fdG>  (517) 
-0.8

>  <fname>  (517) 
mobley_7893124

>  <cname>  (517) 
 tert-butylbenzene

>  <dataset>  (517) 
FreeSolv

$$$$
butyl 4-hydroxybenzoate
     RDKit          3D

 28 28  0  0  0  0  0  0  0  0999 V2000
   -2.1217   -2.4486    4.1676 C   0  0  0  0  0  0  0  0  0  0  0  0
   -1.8675   -2.7557    2.7005 C   0  0  0  0  0  0  0  0  0  0  0  0
   -3.1548   -2.6882    1.8838 C   0  0  0  0  0  0  0  0  0  0  0  0
   -2.9047   -2.9950    0.4140 C   0  0  0  0  0  0  0  0  0  0  0  0
   -4.1377   -2.9159   -0.2877 O   0  0  0  0  0  0  0  0  0  0  0  0
   -4.0825   -3.1663   -1.6254 C   0  0  0  0  0  0  0  0  0  0  0  0
   -3.0787   -3.4485   -2.2611 O   0  0  0  0  0  0  0  0  0  0  0  0
   -5.4295   -3.0508   -2.2392 C   0  0  0  0  0  0  0  0  0  0  0  0
   -5.5941   -3.2698   -3.6069 C   0  0  0  0  0  0  0  0  0  0  0  0
   -6.8596   -3.1614   -4.1833 C   0  0  0  0  0  0  0  0  0  0  0  0
   -7.9606   -2.8338   -3.3919 C   0  0  0  0  0  0  0  0  0  0  0  0
   -7.7960   -2.6147   -2.0242 C   0  0  0  0  0  0  0  0  0  0  0  0
   -6.5304   -2.7232   -1.4479 C   0  0  0  0  0  0  0  0  0  0  0  0
   -9.1959   -2.7278   -3.9535 O   0  0  0  0  0  0  0  0  0  0  0  0
   -1.1935   -2.4993    4.7457 H   0  0  0  0  0  0  0  0  0  0  0  0
   -2.5492   -1.4484    4.2906 H   0  0  0  0  0  0  0  0  0  0  0  0
   -2.8250   -3.1730    4.5901 H   0  0  0  0  0  0  0  0  0  0  0  0
   -1.1375   -2.0401    2.3046 H   0  0  0  0  0  0  0  0  0  0  0  0
   -1.4231   -3.7540    2.6140 H   0  0  0  0  0  0  0  0  0  0  0  0
   -3.8946   -3.3941    2.2814 H   0  0  0  0  0  0  0  0  0  0  0  0
   -3.6106   -1.6942    1.9748 H   0  0  0  0  0  0  0  0  0  0  0  0
   -2.2084   -2.2722   -0.0229 H   0  0  0  0  0  0  0  0  0  0  0  0
   -2.4972   -4.0033    0.2891 H   0  0  0  0  0  0  0  0  0  0  0  0
   -4.7433   -3.5249   -4.2334 H   0  0  0  0  0  0  0  0  0  0  0  0
   -6.9816   -3.3342   -5.2490 H   0  0  0  0  0  0  0  0  0  0  0  0
   -8.6499   -2.3587   -1.4027 H   0  0  0  0  0  0  0  0  0  0  0  0
   -6.4133   -2.5512   -0.3809 H   0  0  0  0  0  0  0  0  0  0  0  0
   -9.1489   -2.9075   -4.9060 H   0  0  0  0  0  0  0  0  0  0  0  0
  1  2  1  0
  2  3  1  0
  3  4  1  0
  4  5  1  0
  5  6  1  0
  6  7  2  0
  6  8  1  0
  8 13  2  0
  8  9  1  0
  9 10  2  0
 10 11  1  0
 11 12  2  0
 12 13  1  0
 11 14  1  0
  1 15  1  0
  1 16  1  0
  1 17  1  0
  2 18  1  0
  2 19  1  0
  3 20  1  0
  3 21  1  0
  4 22  1  0
  4 23  1  0
  9 24  1  0
 10 25  1  0
 12 26  1  0
 13 27  1  0
 14 28  1  0
M  END
>  <_TriposChargeType>  (518) 
USER_CHARGES

>  <solvdG>  (518) 
-8.72

>  <fdG>  (518) 
-8.77

>  <fname>  (518) 
mobley_7912193

>  <cname>  (518) 
 butyl paraben

>  <dataset>  (518) 
FreeSolv

$$$$
(2S)-1-butoxypropan-2-ol
     RDKit          3D

 25 24  0  0  0  0  0  0  0  0999 V2000
    0.3901   -1.0211   -0.0846 C   0  0  0  0  0  0  0  0  0  0  0  0
   -0.5795   -2.0237    0.5202 C   0  0  0  0  0  0  0  0  0  0  0  0
   -1.9307   -1.9925   -0.1885 C   0  0  0  0  0  0  0  0  0  0  0  0
   -2.9047   -2.9950    0.4140 C   0  0  0  0  0  0  0  0  0  0  0  0
   -4.1377   -2.9159   -0.2877 O   0  0  0  0  0  0  0  0  0  0  0  0
   -5.0930   -3.8319    0.2302 C   0  0  0  0  0  0  0  0  0  0  0  0
   -6.3888   -3.6992   -0.5611 C   0  0  2  0  0  0  0  0  0  0  0  0
   -6.5918   -2.6445   -0.7774 H   0  0  0  0  0  0  0  0  0  0  0  0
   -7.5613   -4.3269    0.1773 C   0  0  0  0  0  0  0  0  0  0  0  0
   -6.2204   -4.3667   -1.8108 O   0  0  0  0  0  0  0  0  0  0  0  0
    1.3561   -1.0503    0.4296 H   0  0  0  0  0  0  0  0  0  0  0  0
    0.5590   -1.2299   -1.1458 H   0  0  0  0  0  0  0  0  0  0  0  0
   -0.0105   -0.0064    0.0025 H   0  0  0  0  0  0  0  0  0  0  0  0
   -0.1467   -3.0286    0.4523 H   0  0  0  0  0  0  0  0  0  0  0  0
   -0.7118   -1.7987    1.5849 H   0  0  0  0  0  0  0  0  0  0  0  0
   -2.3650   -0.9865   -0.1343 H   0  0  0  0  0  0  0  0  0  0  0  0
   -1.8040   -2.2066   -1.2572 H   0  0  0  0  0  0  0  0  0  0  0  0
   -2.5190   -4.0157    0.3261 H   0  0  0  0  0  0  0  0  0  0  0  0
   -3.0903   -2.7735    1.4699 H   0  0  0  0  0  0  0  0  0  0  0  0
   -5.2503   -3.5945    1.2883 H   0  0  0  0  0  0  0  0  0  0  0  0
   -4.6806   -4.8426    0.1416 H   0  0  0  0  0  0  0  0  0  0  0  0
   -8.4825   -4.2219   -0.4059 H   0  0  0  0  0  0  0  0  0  0  0  0
   -7.3891   -5.3911    0.3651 H   0  0  0  0  0  0  0  0  0  0  0  0
   -7.7366   -3.8240    1.1348 H   0  0  0  0  0  0  0  0  0  0  0  0
   -5.4831   -3.9264   -2.2602 H   0  0  0  0  0  0  0  0  0  0  0  0
  1  2  1  0
  2  3  1  0
  3  4  1  0
  4  5  1  0
  5  6  1  0
  6  7  1  0
  7  8  1  6
  7  9  1  0
  7 10  1  0
  1 11  1  0
  1 12  1  0
  1 13  1  0
  2 14  1  0
  2 15  1  0
  3 16  1  0
  3 17  1  0
  4 18  1  0
  4 19  1  0
  6 20  1  0
  6 21  1  0
  9 22  1  0
  9 23  1  0
  9 24  1  0
 10 25  1  0
M  END
>  <_TriposChargeType>  (519) 
USER_CHARGES

>  <solvdG>  (519) 
-5.73

>  <fdG>  (519) 
-3.89

>  <fname>  (519) 
mobley_7913234

>  <cname>  (519) 
 1-butoxy-2-propanol

>  <dataset>  (519) 
FreeSolv

$$$$
ethyl propanoate
     RDKit          3D

 17 16  0  0  0  0  0  0  0  0999 V2000
   -0.8712    0.5470    0.3733 C   0  0  0  0  0  0  0  0  0  0  0  0
   -0.8823    0.5514    1.8920 C   0  0  0  0  0  0  0  0  0  0  0  0
   -2.0715    1.2977    2.4497 C   0  0  0  0  0  0  0  0  0  0  0  0
   -2.9385    1.8436    1.7813 O   0  0  0  0  0  0  0  0  0  0  0  0
   -2.0159    1.2612    3.8143 O   0  0  0  0  0  0  0  0  0  0  0  0
   -3.0831    1.9316    4.4926 C   0  0  0  0  0  0  0  0  0  0  0  0
   -2.8686    1.7951    5.9811 C   0  0  0  0  0  0  0  0  0  0  0  0
   -0.0030    0.0021   -0.0122 H   0  0  0  0  0  0  0  0  0  0  0  0
   -1.7756    0.0673   -0.0132 H   0  0  0  0  0  0  0  0  0  0  0  0
   -0.8286    1.5671   -0.0225 H   0  0  0  0  0  0  0  0  0  0  0  0
    0.0313    1.0306    2.2597 H   0  0  0  0  0  0  0  0  0  0  0  0
   -0.9183   -0.4806    2.2568 H   0  0  0  0  0  0  0  0  0  0  0  0
   -3.0741    2.9793    4.1906 H   0  0  0  0  0  0  0  0  0  0  0  0
   -4.0232    1.4702    4.1888 H   0  0  0  0  0  0  0  0  0  0  0  0
   -3.6690    2.2978    6.5309 H   0  0  0  0  0  0  0  0  0  0  0  0
   -2.8447    0.7410    6.2765 H   0  0  0  0  0  0  0  0  0  0  0  0
   -1.9086    2.2305    6.2780 H   0  0  0  0  0  0  0  0  0  0  0  0
  1  2  1  0
  2  3  1  0
  3  4  2  0
  3  5  1  0
  5  6  1  0
  6  7  1  0
  1  8  1  0
  1  9  1  0
  1 10  1  0
  2 11  1  0
  2 12  1  0
  6 13  1  0
  6 14  1  0
  7 15  1  0
  7 16  1  0
  7 17  1  0
M  END
>  <_TriposChargeType>  (520) 
USER_CHARGES

>  <solvdG>  (520) 
-2.68

>  <fdG>  (520) 
-3.22

>  <fname>  (520) 
mobley_7943327

>  <cname>  (520) 
 ethyl propanoate

>  <dataset>  (520) 
FreeSolv

$$$$
(3S)-hexan-3-ol
     RDKit          3D

 21 20  0  0  0  0  0  0  0  0999 V2000
    0.8931   -0.3155    0.3468 C   0  0  0  0  0  0  0  0  0  0  0  0
    1.2136    0.1404    1.7619 C   0  0  0  0  0  0  0  0  0  0  0  0
    0.1532   -0.3405    2.7584 C   0  0  0  0  0  0  0  0  0  0  0  0
    0.4585    0.1093    4.1927 C   0  0  2  0  0  0  0  0  0  0  0  0
    1.4274   -0.2956    4.5080 H   0  0  0  0  0  0  0  0  0  0  0  0
   -0.6283   -0.2989    5.1946 C   0  0  0  0  0  0  0  0  0  0  0  0
   -0.3440    0.1380    6.6224 C   0  0  0  0  0  0  0  0  0  0  0  0
    0.5622    1.5341    4.2072 O   0  0  0  0  0  0  0  0  0  0  0  0
    1.6543    0.0314   -0.3594 H   0  0  0  0  0  0  0  0  0  0  0  0
    0.8419   -1.4074    0.2888 H   0  0  0  0  0  0  0  0  0  0  0  0
   -0.0736    0.0874    0.0289 H   0  0  0  0  0  0  0  0  0  0  0  0
    2.1969   -0.2488    2.0503 H   0  0  0  0  0  0  0  0  0  0  0  0
    1.2800    1.2341    1.7749 H   0  0  0  0  0  0  0  0  0  0  0  0
   -0.8215    0.0582    2.4499 H   0  0  0  0  0  0  0  0  0  0  0  0
    0.0934   -1.4332    2.7108 H   0  0  0  0  0  0  0  0  0  0  0  0
   -1.5851    0.1354    4.8776 H   0  0  0  0  0  0  0  0  0  0  0  0
   -0.7760   -1.3856    5.1624 H   0  0  0  0  0  0  0  0  0  0  0  0
   -1.1468   -0.1763    7.2968 H   0  0  0  0  0  0  0  0  0  0  0  0
    0.5892   -0.3138    6.9738 H   0  0  0  0  0  0  0  0  0  0  0  0
   -0.2322    1.2233    6.6969 H   0  0  0  0  0  0  0  0  0  0  0  0
   -0.2931    1.8730    3.9038 H   0  0  0  0  0  0  0  0  0  0  0  0
  1  2  1  0
  2  3  1  0
  3  4  1  0
  4  5  1  1
  4  6  1  0
  6  7  1  0
  4  8  1  0
  1  9  1  0
  1 10  1  0
  1 11  1  0
  2 12  1  0
  2 13  1  0
  3 14  1  0
  3 15  1  0
  6 16  1  0
  6 17  1  0
  7 18  1  0
  7 19  1  0
  7 20  1  0
  8 21  1  0
M  END
>  <_TriposChargeType>  (521) 
USER_CHARGES

>  <solvdG>  (521) 
-4.06

>  <fdG>  (521) 
-2.58

>  <fname>  (521) 
mobley_7977115

>  <cname>  (521) 
 hexan-3-ol

>  <dataset>  (521) 
FreeSolv

$$$$
(2R)-2-methylbutan-1-ol
     RDKit          3D

 18 17  0  0  0  0  0  0  0  0999 V2000
    1.9476   -0.4272   -1.8511 C   0  0  0  0  0  0  0  0  0  0  0  0
    2.1271    0.0762   -0.4262 C   0  0  0  0  0  0  0  0  0  0  0  0
    2.2498    1.6090   -0.3259 C   0  0  1  0  0  0  0  0  0  0  0  0
    1.3337    2.0583   -0.7308 H   0  0  0  0  0  0  0  0  0  0  0  0
    2.3507    2.0128    1.1495 C   0  0  0  0  0  0  0  0  0  0  0  0
    3.4396    2.1790   -1.1097 C   0  0  0  0  0  0  0  0  0  0  0  0
    4.6642    1.6396   -0.6324 O   0  0  0  0  0  0  0  0  0  0  0  0
    1.8641   -1.5173   -1.8844 H   0  0  0  0  0  0  0  0  0  0  0  0
    1.0539    0.0051   -2.3116 H   0  0  0  0  0  0  0  0  0  0  0  0
    2.8124   -0.1445   -2.4601 H   0  0  0  0  0  0  0  0  0  0  0  0
    3.0364   -0.3809   -0.0158 H   0  0  0  0  0  0  0  0  0  0  0  0
    1.2936   -0.2833    0.1891 H   0  0  0  0  0  0  0  0  0  0  0  0
    2.4398    3.0981    1.2654 H   0  0  0  0  0  0  0  0  0  0  0  0
    3.2231    1.5481    1.6208 H   0  0  0  0  0  0  0  0  0  0  0  0
    1.4630    1.6868    1.7018 H   0  0  0  0  0  0  0  0  0  0  0  0
    3.4818    3.2689   -1.0208 H   0  0  0  0  0  0  0  0  0  0  0  0
    3.3479    1.9349   -2.1737 H   0  0  0  0  0  0  0  0  0  0  0  0
    5.3724    2.0368   -1.1649 H   0  0  0  0  0  0  0  0  0  0  0  0
  1  2  1  0
  2  3  1  0
  3  4  1  6
  3  5  1  0
  3  6  1  0
  6  7  1  0
  1  8  1  0
  1  9  1  0
  1 10  1  0
  2 11  1  0
  2 12  1  0
  5 13  1  0
  5 14  1  0
  5 15  1  0
  6 16  1  0
  6 17  1  0
  7 18  1  0
M  END
>  <_TriposChargeType>  (522) 
USER_CHARGES

>  <solvdG>  (522) 
-4.42

>  <fdG>  (522) 
-3.0

>  <fname>  (522) 
mobley_7983227

>  <cname>  (522) 
 2-methylbutan-1-ol

>  <dataset>  (522) 
FreeSolv

$$$$
4-hydroxybenzaldehyde
     RDKit          3D

 15 15  0  0  0  0  0  0  0  0999 V2000
    1.8851   -1.0363   -0.1124 C   0  0  0  0  0  0  0  0  0  0  0  0
    2.9210   -1.6309    0.6081 C   0  0  0  0  0  0  0  0  0  0  0  0
    2.8783   -1.6520    2.0022 C   0  0  0  0  0  0  0  0  0  0  0  0
    1.7997   -1.0786    2.6757 C   0  0  0  0  0  0  0  0  0  0  0  0
    0.7638   -0.4841    1.9551 C   0  0  0  0  0  0  0  0  0  0  0  0
    0.8066   -0.4630    0.5610 C   0  0  0  0  0  0  0  0  0  0  0  0
   -0.2733    0.1568   -0.1904 C   0  0  0  0  0  0  0  0  0  0  0  0
   -1.2537    0.6804    0.3462 O   0  0  0  0  0  0  0  0  0  0  0  0
    3.8888   -2.2320    2.7057 O   0  0  0  0  0  0  0  0  0  0  0  0
    1.9283   -1.0252   -1.1985 H   0  0  0  0  0  0  0  0  0  0  0  0
    3.7586   -2.0759    0.0779 H   0  0  0  0  0  0  0  0  0  0  0  0
    1.7607   -1.0921    3.7615 H   0  0  0  0  0  0  0  0  0  0  0  0
   -0.0716   -0.0402    2.4904 H   0  0  0  0  0  0  0  0  0  0  0  0
   -0.1951    0.1489   -1.2994 H   0  0  0  0  0  0  0  0  0  0  0  0
    4.5613   -2.5836    2.1006 H   0  0  0  0  0  0  0  0  0  0  0  0
  1  6  2  0
  1  2  1  0
  2  3  2  0
  3  4  1  0
  4  5  2  0
  5  6  1  0
  6  7  1  0
  7  8  2  0
  3  9  1  0
  1 10  1  0
  2 11  1  0
  4 12  1  0
  5 13  1  0
  7 14  1  0
  9 15  1  0
M  END
>  <_TriposChargeType>  (523) 
USER_CHARGES

>  <solvdG>  (523) 
-8.83

>  <fdG>  (523) 
-10.05

>  <fname>  (523) 
mobley_7988076

>  <cname>  (523) 
 4-hydroxybenzaldehyde

>  <dataset>  (523) 
FreeSolv

$$$$
cyclopentane
     RDKit          3D

 15 15  0  0  0  0  0  0  0  0999 V2000
   -0.2457    0.8538   -0.9315 C   0  0  0  0  0  0  0  0  0  0  0  0
    1.1261    0.4809   -0.3704 C   0  0  0  0  0  0  0  0  0  0  0  0
    0.8452   -0.3299    0.8861 C   0  0  0  0  0  0  0  0  0  0  0  0
   -0.4578   -1.0394    0.5622 C   0  0  0  0  0  0  0  0  0  0  0  0
   -1.2679    0.0346   -0.1465 C   0  0  0  0  0  0  0  0  0  0  0  0
   -0.2939    0.6216   -2.0010 H   0  0  0  0  0  0  0  0  0  0  0  0
   -0.4438    1.9254   -0.8209 H   0  0  0  0  0  0  0  0  0  0  0  0
    1.6661   -0.1349   -1.0998 H   0  0  0  0  0  0  0  0  0  0  0  0
    1.7403    1.3619   -0.1613 H   0  0  0  0  0  0  0  0  0  0  0  0
    1.6549   -1.0272    1.1195 H   0  0  0  0  0  0  0  0  0  0  0  0
    0.7094    0.3391    1.7440 H   0  0  0  0  0  0  0  0  0  0  0  0
   -0.2738   -1.8833   -0.1131 H   0  0  0  0  0  0  0  0  0  0  0  0
   -0.9615   -1.4188    1.4556 H   0  0  0  0  0  0  0  0  0  0  0  0
   -2.0428   -0.3896   -0.7920 H   0  0  0  0  0  0  0  0  0  0  0  0
   -1.7643    0.6757    0.5918 H   0  0  0  0  0  0  0  0  0  0  0  0
  1  5  1  0
  1  2  1  0
  2  3  1  0
  3  4  1  0
  4  5  1  0
  1  6  1  0
  1  7  1  0
  2  8  1  0
  2  9  1  0
  3 10  1  0
  3 11  1  0
  4 12  1  0
  4 13  1  0
  5 14  1  0
  5 15  1  0
M  END
>  <_TriposChargeType>  (524) 
USER_CHARGES

>  <solvdG>  (524) 
1.2

>  <fdG>  (524) 
1.65

>  <fname>  (524) 
mobley_8006582

>  <cname>  (524) 
 cyclopentane

>  <dataset>  (524) 
FreeSolv

$$$$
N,N-dimethylformamide
     RDKit          3D

 12 11  0  0  0  0  0  0  0  0999 V2000
    0.9686   -0.0549   -0.5592 C   0  0  0  0  0  0  0  0  0  0  0  0
    1.5475   -1.3611   -0.2934 N   0  0  0  0  0  0  0  0  0  0  0  0
    0.7832   -2.5563   -0.6072 C   0  0  0  0  0  0  0  0  0  0  0  0
    2.8174   -1.4425    0.2543 C   0  0  0  0  0  0  0  0  0  0  0  0
    3.5583   -0.5153    0.5614 O   0  0  0  0  0  0  0  0  0  0  0  0
    0.4131    0.2948    0.3149 H   0  0  0  0  0  0  0  0  0  0  0  0
    0.2856   -0.1105   -1.4112 H   0  0  0  0  0  0  0  0  0  0  0  0
    1.7562    0.6681   -0.7881 H   0  0  0  0  0  0  0  0  0  0  0  0
    0.9997   -2.8644   -1.6277 H   0  0  0  0  0  0  0  0  0  0  0  0
   -0.2792   -2.3431   -0.5086 H   0  0  0  0  0  0  0  0  0  0  0  0
    1.0587   -3.3533    0.0802 H   0  0  0  0  0  0  0  0  0  0  0  0
    3.1358   -2.4872    0.4042 H   0  0  0  0  0  0  0  0  0  0  0  0
  1  2  1  0
  2  3  1  0
  2  4  1  0
  4  5  2  0
  1  6  1  0
  1  7  1  0
  1  8  1  0
  3  9  1  0
  3 10  1  0
  3 11  1  0
  4 12  1  0
M  END
>  <_TriposChargeType>  (525) 
USER_CHARGES

>  <solvdG>  (525) 
-7.81

>  <fdG>  (525) 
-6.93

>  <fname>  (525) 
mobley_8011706

>  <cname>  (525) 
 N,N-dimethylformamide

>  <dataset>  (525) 
FreeSolv

$$$$
acetamide
     RDKit          3D

  9  8  0  0  0  0  0  0  0  0999 V2000
    0.0085   -1.0706   -0.2216 C   0  0  0  0  0  0  0  0  0  0  0  0
   -1.1143   -1.7345    0.5269 C   0  0  0  0  0  0  0  0  0  0  0  0
   -2.2913   -1.5797    0.2102 O   0  0  0  0  0  0  0  0  0  0  0  0
   -0.6961   -2.4994    1.5900 N   0  0  0  0  0  0  0  0  0  0  0  0
    0.2134   -0.0964    0.2308 H   0  0  0  0  0  0  0  0  0  0  0  0
    0.9008   -1.6989   -0.1556 H   0  0  0  0  0  0  0  0  0  0  0  0
   -0.2396   -0.9173   -1.2754 H   0  0  0  0  0  0  0  0  0  0  0  0
   -1.3658   -2.9943    2.1698 H   0  0  0  0  0  0  0  0  0  0  0  0
    0.2822   -2.6001    1.8406 H   0  0  0  0  0  0  0  0  0  0  0  0
  1  2  1  0
  2  3  2  0
  2  4  1  0
  1  5  1  0
  1  6  1  0
  1  7  1  0
  4  8  1  0
  4  9  1  0
M  END
>  <_TriposChargeType>  (526) 
USER_CHARGES

>  <solvdG>  (526) 
-9.71

>  <fdG>  (526) 
-8.82

>  <fname>  (526) 
mobley_8048190

>  <cname>  (526) 
 acetamide

>  <dataset>  (526) 
FreeSolv

$$$$
1-aminoanthracene-9,10-dione
     RDKit          3D

 26 28  0  0  0  0  0  0  0  0999 V2000
    1.2904   -1.6865   -0.3516 C   0  0  0  0  0  0  0  0  0  0  0  0
    0.9563   -0.4630    0.2256 C   0  0  0  0  0  0  0  0  0  0  0  0
    1.8484    0.1684    1.0928 C   0  0  0  0  0  0  0  0  0  0  0  0
    3.0812   -0.4277    1.3842 C   0  0  0  0  0  0  0  0  0  0  0  0
    3.4160   -1.6538    0.8057 C   0  0  0  0  0  0  0  0  0  0  0  0
    2.5179   -2.2839   -0.0640 C   0  0  0  0  0  0  0  0  0  0  0  0
    4.7134   -2.2938    1.1043 C   0  0  0  0  0  0  0  0  0  0  0  0
    5.0075   -3.3691    0.5970 O   0  0  0  0  0  0  0  0  0  0  0  0
    5.6516   -1.6180    2.0237 C   0  0  0  0  0  0  0  0  0  0  0  0
    6.8845   -2.2140    2.3149 C   0  0  0  0  0  0  0  0  0  0  0  0
    7.7766   -1.5826    3.1822 C   0  0  0  0  0  0  0  0  0  0  0  0
    7.4425   -0.3591    3.7594 C   0  0  0  0  0  0  0  0  0  0  0  0
    6.2150    0.2382    3.4720 C   0  0  0  0  0  0  0  0  0  0  0  0
    5.3168   -0.3919    2.6022 C   0  0  0  0  0  0  0  0  0  0  0  0
    4.0194    0.2481    2.3036 C   0  0  0  0  0  0  0  0  0  0  0  0
    3.6911    1.3222    2.7914 O   0  0  0  0  0  0  0  0  0  0  0  0
    5.9467    1.4787    4.0953 N   0  0  0  0  0  0  0  0  0  0  0  0
    0.5941   -2.1759   -1.0263 H   0  0  0  0  0  0  0  0  0  0  0  0
    0.0002    0.0001   -0.0002 H   0  0  0  0  0  0  0  0  0  0  0  0
    1.5620    1.1218    1.5285 H   0  0  0  0  0  0  0  0  0  0  0  0
    2.7545   -3.2381   -0.5267 H   0  0  0  0  0  0  0  0  0  0  0  0
    7.1685   -3.1675    1.8781 H   0  0  0  0  0  0  0  0  0  0  0  0
    8.7334   -2.0451    3.4074 H   0  0  0  0  0  0  0  0  0  0  0  0
    8.1494    0.1194    4.4330 H   0  0  0  0  0  0  0  0  0  0  0  0
    5.0987    1.9575    3.8761 H   0  0  0  0  0  0  0  0  0  0  0  0
    6.6506    1.8950    4.6678 H   0  0  0  0  0  0  0  0  0  0  0  0
  1  6  2  0
  1  2  1  0
  2  3  2  0
  3  4  1  0
  4 15  1  0
  4  5  2  0
  5  6  1  0
  5  7  1  0
  7  8  2  0
  7  9  1  0
  9 14  2  0
  9 10  1  0
 10 11  2  0
 11 12  1  0
 12 13  2  0
 13 14  1  0
 14 15  1  0
 15 16  2  0
 13 17  1  0
  1 18  1  0
  2 19  1  0
  3 20  1  0
  6 21  1  0
 10 22  1  0
 11 23  1  0
 12 24  1  0
 17 25  1  0
 17 26  1  0
M  END
>  <_TriposChargeType>  (527) 
USER_CHARGES

>  <solvdG>  (527) 
-9.44

>  <fdG>  (527) 
-12.21

>  <fname>  (527) 
mobley_8052240

>  <cname>  (527) 
 1-amino-9,10-anthracenedione

>  <dataset>  (527) 
FreeSolv

$$$$
3-chlorophenol
     RDKit          3D

 13 13  0  0  0  0  0  0  0  0999 V2000
    1.8851   -1.0363   -0.1124 C   0  0  0  0  0  0  0  0  0  0  0  0
    2.9210   -1.6309    0.6081 C   0  0  0  0  0  0  0  0  0  0  0  0
    2.8783   -1.6520    2.0022 C   0  0  0  0  0  0  0  0  0  0  0  0
    1.7997   -1.0786    2.6757 C   0  0  0  0  0  0  0  0  0  0  0  0
    0.7638   -0.4841    1.9551 C   0  0  0  0  0  0  0  0  0  0  0  0
    0.8066   -0.4630    0.5610 C   0  0  0  0  0  0  0  0  0  0  0  0
   -0.5674    0.2235    2.7847 Cl  0  0  0  0  0  0  0  0  0  0  0  0
    3.8892   -2.2319    2.7052 O   0  0  0  0  0  0  0  0  0  0  0  0
    1.9186   -1.0202   -1.1979 H   0  0  0  0  0  0  0  0  0  0  0  0
    3.7588   -2.0756    0.0780 H   0  0  0  0  0  0  0  0  0  0  0  0
    1.7743   -1.0986    3.7627 H   0  0  0  0  0  0  0  0  0  0  0  0
    0.0070   -0.0024   -0.0137 H   0  0  0  0  0  0  0  0  0  0  0  0
    4.5616   -2.5831    2.0999 H   0  0  0  0  0  0  0  0  0  0  0  0
  1  6  2  0
  1  2  1  0
  2  3  2  0
  3  4  1  0
  4  5  2  0
  5  6  1  0
  5  7  1  0
  3  8  1  0
  1  9  1  0
  2 10  1  0
  4 11  1  0
  6 12  1  0
  8 13  1  0
M  END
>  <_TriposChargeType>  (528) 
USER_CHARGES

>  <solvdG>  (528) 
-6.62

>  <fdG>  (528) 
-5.02

>  <fname>  (528) 
mobley_8057732

>  <cname>  (528) 
 3-chlorophenol

>  <dataset>  (528) 
FreeSolv

$$$$
(1R,2S,3S,4R,5R,6S,9R,10S)-7,8,9,10,11,11-hexachloro-12-oxapentacyclo[BLAH.BLAH.BLAH.BLAH.BLAH.BLAH]tridec-7-ene
     RDKit          3D

 27 31  0  0  0  0  0  0  0  0999 V2000
    2.5074   -0.0558   -0.4071 C   0  0  0  0  0  0  0  0  0  0  0  0
    1.9588   -0.7541    0.8416 C   0  0  2  0  0  0  0  0  0  0  0  0
    2.2446   -1.7987    0.9709 H   0  0  0  0  0  0  0  0  0  0  0  0
    0.4280   -0.4691    0.8374 C   0  0  1  0  0  0  0  0  0  0  0  0
    0.1173   -0.4153    1.8935 H   0  0  0  0  0  0  0  0  0  0  0  0
    0.3565    0.9714    0.1874 C   0  0  1  0  0  0  0  0  0  0  0  0
    0.0097    1.6997    0.9383 H   0  0  0  0  0  0  0  0  0  0  0  0
    1.8572    1.2910   -0.0761 C   0  0  1  0  0  0  0  0  0  0  0  0
    2.0512    2.1018   -0.7793 H   0  0  0  0  0  0  0  0  0  0  0  0
    2.4477    1.5456    1.3280 C   0  0  1  0  0  0  0  0  0  0  0  0
    2.0744    2.3849    1.8905 H   0  0  0  0  0  0  0  0  0  0  0  0
    2.5170    0.1727    1.9438 C   0  0  2  0  0  0  0  0  0  0  0  0
    2.1948    0.0054    2.9579 H   0  0  0  0  0  0  0  0  0  0  0  0
    3.6961    0.9342    1.6668 O   0  0  0  0  0  0  0  0  0  0  0  0
   -0.7894    0.8015   -0.8699 C   0  0  2  0  0  0  0  0  0  0  0  0
   -2.0206    0.6555    0.0326 C   0  0  0  0  0  0  0  0  0  0  0  0
   -1.9611   -0.5674    0.5876 C   0  0  0  0  0  0  0  0  0  0  0  0
   -0.6907   -1.2424    0.0566 C   0  0  1  0  0  0  0  0  0  0  0  0
   -0.7767   -0.6680   -1.3891 C   0  0  0  0  0  0  0  0  0  0  0  0
   -2.3239   -1.1462   -2.2794 Cl  0  0  0  0  0  0  0  0  0  0  0  0
    0.4460   -1.1471   -2.5700 Cl  0  0  0  0  0  0  0  0  0  0  0  0
   -0.6161   -2.9804    0.1861 Cl  0  0  0  0  0  0  0  0  0  0  0  0
   -3.0130   -1.2588    1.7187 Cl  0  0  0  0  0  0  0  0  0  0  0  0
   -3.1651    1.8736    0.2973 Cl  0  0  0  0  0  0  0  0  0  0  0  0
   -0.8582    2.0439   -2.0923 Cl  0  0  0  0  0  0  0  0  0  0  0  0
    2.2478   -0.4887   -1.3488 H   0  0  0  0  0  0  0  0  0  0  0  0
    3.6038   -0.0078   -0.4200 H   0  0  0  0  0  0  0  0  0  0  0  0
  1  8  1  0
  1  2  1  0
  2  3  1  1
  2 12  1  0
  2  4  1  0
  4  5  1  1
  4 18  1  0
  4  6  1  0
  6  7  1  1
  6  8  1  0
  8  9  1  6
  8 10  1  0
 10 11  1  1
 10 14  1  0
 10 12  1  0
 12 13  1  1
 12 14  1  0
  6 15  1  0
 15 19  1  0
 15 16  1  0
 16 17  2  0
 17 18  1  0
 18 19  1  0
 19 20  1  0
 19 21  1  0
 18 22  1  6
 17 23  1  0
 16 24  1  0
 15 25  1  6
  1 26  1  0
  1 27  1  0
M  END
>  <_TriposChargeType>  (529) 
USER_CHARGES

>  <solvdG>  (529) 
-4.82

>  <fdG>  (529) 
-5.18

>  <fname>  (529) 
mobley_8117218

>  <cname>  (529) 
 endrin

>  <dataset>  (529) 
FreeSolv

$$$$
prop-2-en-1-ol
     RDKit          3D

 10  9  0  0  0  0  0  0  0  0999 V2000
   -0.4683    0.6052    0.7686 C   0  0  0  0  0  0  0  0  0  0  0  0
   -1.5851    0.1863    1.3739 C   0  0  0  0  0  0  0  0  0  0  0  0
   -2.2686   -1.1037    1.0626 C   0  0  0  0  0  0  0  0  0  0  0  0
   -2.3064   -1.8963    2.2409 O   0  0  0  0  0  0  0  0  0  0  0  0
   -0.0040    1.5507    1.0257 H   0  0  0  0  0  0  0  0  0  0  0  0
    0.0000    0.0000    0.0000 H   0  0  0  0  0  0  0  0  0  0  0  0
   -2.0350    0.8201    2.1337 H   0  0  0  0  0  0  0  0  0  0  0  0
   -1.7514   -1.6670    0.2795 H   0  0  0  0  0  0  0  0  0  0  0  0
   -3.2959   -0.9101    0.7387 H   0  0  0  0  0  0  0  0  0  0  0  0
   -2.7549   -2.7253    2.0074 H   0  0  0  0  0  0  0  0  0  0  0  0
  1  2  2  3
  2  3  1  0
  3  4  1  0
  1  5  1  0
  1  6  1  0
  2  7  1  0
  3  8  1  0
  3  9  1  0
  4 10  1  0
M  END
>  <_TriposChargeType>  (530) 
USER_CHARGES

>  <solvdG>  (530) 
-5.03

>  <fdG>  (530) 
-3.29

>  <fname>  (530) 
mobley_8118832

>  <cname>  (530) 
 prop-2-en-1-ol

>  <dataset>  (530) 
FreeSolv

$$$$
2-chloro-N-(2,6-diethylphenyl)-N-(methoxymethyl)acetamide
     RDKit          3D

 38 38  0  0  0  0  0  0  0  0999 V2000
    1.7535    0.6237   -4.1878 C   0  0  0  0  0  0  0  0  0  0  0  0
    0.3770    0.0313   -3.9279 C   0  0  0  0  0  0  0  0  0  0  0  0
    0.4587   -1.3983   -3.5000 C   0  0  0  0  0  0  0  0  0  0  0  0
    0.4276   -2.3939   -4.4766 C   0  0  0  0  0  0  0  0  0  0  0  0
    0.5030   -3.7366   -4.1063 C   0  0  0  0  0  0  0  0  0  0  0  0
    0.6094   -4.0837   -2.7595 C   0  0  0  0  0  0  0  0  0  0  0  0
    0.6404   -3.0881   -1.7830 C   0  0  0  0  0  0  0  0  0  0  0  0
    0.5650   -1.7454   -2.1533 C   0  0  0  0  0  0  0  0  0  0  0  0
    0.5978   -0.7115   -1.1389 N   0  0  0  0  0  0  0  0  0  0  0  0
    1.8988   -0.1512   -0.7255 C   0  0  0  0  0  0  0  0  0  0  0  0
    2.0811   -0.3843    0.6691 O   0  0  0  0  0  0  0  0  0  0  0  0
    3.3213    0.1344    1.1293 C   0  0  0  0  0  0  0  0  0  0  0  0
   -0.6198   -0.2646   -0.5696 C   0  0  0  0  0  0  0  0  0  0  0  0
   -0.7064    0.6073    0.2980 O   0  0  0  0  0  0  0  0  0  0  0  0
   -1.8737   -0.9141   -1.1321 C   0  0  0  0  0  0  0  0  0  0  0  0
   -3.3279   -0.2720   -0.3400 Cl  0  0  0  0  0  0  0  0  0  0  0  0
    0.7548   -3.4919   -0.3485 C   0  0  0  0  0  0  0  0  0  0  0  0
    2.2065   -3.5958    0.1081 C   0  0  0  0  0  0  0  0  0  0  0  0
    1.6829    1.6710   -4.5006 H   0  0  0  0  0  0  0  0  0  0  0  0
    2.2614    0.0664   -4.9811 H   0  0  0  0  0  0  0  0  0  0  0  0
    2.3797    0.5827   -3.2901 H   0  0  0  0  0  0  0  0  0  0  0  0
   -0.2376    0.1114   -4.8327 H   0  0  0  0  0  0  0  0  0  0  0  0
   -0.1395    0.6180   -3.1584 H   0  0  0  0  0  0  0  0  0  0  0  0
    0.3460   -2.1338   -5.5288 H   0  0  0  0  0  0  0  0  0  0  0  0
    0.4787   -4.5120   -4.8666 H   0  0  0  0  0  0  0  0  0  0  0  0
    0.6685   -5.1324   -2.4812 H   0  0  0  0  0  0  0  0  0  0  0  0
    1.9287    0.9240   -0.9212 H   0  0  0  0  0  0  0  0  0  0  0  0
    2.7113   -0.5972   -1.3117 H   0  0  0  0  0  0  0  0  0  0  0  0
    3.4206   -0.0644    2.1975 H   0  0  0  0  0  0  0  0  0  0  0  0
    3.3554    1.2084    0.9389 H   0  0  0  0  0  0  0  0  0  0  0  0
    4.1299   -0.3593    0.5884 H   0  0  0  0  0  0  0  0  0  0  0  0
   -1.8533   -1.9907   -0.9463 H   0  0  0  0  0  0  0  0  0  0  0  0
   -1.9690   -0.7065   -2.2003 H   0  0  0  0  0  0  0  0  0  0  0  0
    0.2241   -2.7721    0.2932 H   0  0  0  0  0  0  0  0  0  0  0  0
    0.2532   -4.4578   -0.1835 H   0  0  0  0  0  0  0  0  0  0  0  0
    2.2680   -3.8924    1.1606 H   0  0  0  0  0  0  0  0  0  0  0  0
    2.7155   -2.6333   -0.0032 H   0  0  0  0  0  0  0  0  0  0  0  0
    2.7528   -4.3388   -0.4828 H   0  0  0  0  0  0  0  0  0  0  0  0
  1  2  1  0
  2  3  1  0
  3  8  2  0
  3  4  1  0
  4  5  2  0
  5  6  1  0
  6  7  2  0
  7  8  1  0
  8  9  1  0
  9 10  1  0
 10 11  1  0
 11 12  1  0
  9 13  1  0
 13 14  2  0
 13 15  1  0
 15 16  1  0
  7 17  1  0
 17 18  1  0
  1 19  1  0
  1 20  1  0
  1 21  1  0
  2 22  1  0
  2 23  1  0
  4 24  1  0
  5 25  1  0
  6 26  1  0
 10 27  1  0
 10 28  1  0
 12 29  1  0
 12 30  1  0
 12 31  1  0
 15 32  1  0
 15 33  1  0
 17 34  1  0
 17 35  1  0
 18 36  1  0
 18 37  1  0
 18 38  1  0
M  END
>  <_TriposChargeType>  (531) 
USER_CHARGES

>  <solvdG>  (531) 
-8.21

>  <fdG>  (531) 
-6.85

>  <fname>  (531) 
mobley_8124669

>  <cname>  (531) 
 alachlor

>  <dataset>  (531) 
FreeSolv

$$$$
ethylbenzene
     RDKit          3D

 18 18  0  0  0  0  0  0  0  0999 V2000
    2.6297    0.2302   -2.1290 C   0  0  0  0  0  0  0  0  0  0  0  0
    1.9309   -1.0140   -1.6029 C   0  0  0  0  0  0  0  0  0  0  0  0
    1.8851   -1.0363   -0.1124 C   0  0  0  0  0  0  0  0  0  0  0  0
    2.9210   -1.6309    0.6081 C   0  0  0  0  0  0  0  0  0  0  0  0
    2.8783   -1.6520    2.0022 C   0  0  0  0  0  0  0  0  0  0  0  0
    1.7997   -1.0786    2.6757 C   0  0  0  0  0  0  0  0  0  0  0  0
    0.7638   -0.4841    1.9551 C   0  0  0  0  0  0  0  0  0  0  0  0
    0.8066   -0.4630    0.5610 C   0  0  0  0  0  0  0  0  0  0  0  0
    2.6581    0.2371   -3.2239 H   0  0  0  0  0  0  0  0  0  0  0  0
    3.6605    0.2685   -1.7629 H   0  0  0  0  0  0  0  0  0  0  0  0
    2.1190    1.1417   -1.8004 H   0  0  0  0  0  0  0  0  0  0  0  0
    2.4449   -1.9107   -1.9700 H   0  0  0  0  0  0  0  0  0  0  0  0
    0.9114   -1.0640   -2.0044 H   0  0  0  0  0  0  0  0  0  0  0  0
    3.7649   -2.0803    0.0915 H   0  0  0  0  0  0  0  0  0  0  0  0
    3.6850   -2.1148    2.5632 H   0  0  0  0  0  0  0  0  0  0  0  0
    1.7662   -1.0949    3.7611 H   0  0  0  0  0  0  0  0  0  0  0  0
   -0.0762   -0.0382    2.4794 H   0  0  0  0  0  0  0  0  0  0  0  0
   -0.0050    0.0028    0.0083 H   0  0  0  0  0  0  0  0  0  0  0  0
  1  2  1  0
  2  3  1  0
  3  8  2  0
  3  4  1  0
  4  5  2  0
  5  6  1  0
  6  7  2  0
  7  8  1  0
  1  9  1  0
  1 10  1  0
  1 11  1  0
  2 12  1  0
  2 13  1  0
  4 14  1  0
  5 15  1  0
  6 16  1  0
  7 17  1  0
  8 18  1  0
M  END
>  <_TriposChargeType>  (532) 
USER_CHARGES

>  <solvdG>  (532) 
-0.79

>  <fdG>  (532) 
-0.61

>  <fname>  (532) 
mobley_8127829

>  <cname>  (532) 
 ethylbenzene

>  <dataset>  (532) 
FreeSolv

$$$$
(2E)-3,7-dimethylocta-2,6-dien-1-ol
     RDKit          3D

 29 28  0  0  0  0  0  0  0  0999 V2000
   -6.1485   -0.6681    5.1834 C   0  0  0  0  0  0  0  0  0  0  0  0
   -5.0693   -1.0547    4.2073 C   0  0  0  0  0  0  0  0  0  0  0  0
   -4.9014   -0.3570    3.0681 C   0  0  0  0  0  0  0  0  0  0  0  0
   -3.8947   -0.5912    1.9759 C   0  0  0  0  0  0  0  0  0  0  0  0
   -2.9673    0.6120    1.7607 C   0  0  0  0  0  0  0  0  0  0  0  0
   -1.9422    0.4040    0.6655 C   0  0  0  0  0  0  0  0  0  0  0  0
   -1.8342    1.1634   -0.4423 C   0  0  0  0  0  0  0  0  0  0  0  0
   -0.8538    1.0219   -1.5628 C   0  0  0  0  0  0  0  0  0  0  0  0
   -0.0929    2.2190   -1.6529 O   0  0  0  0  0  0  0  0  0  0  0  0
   -1.0219   -0.7731    0.8649 C   0  0  0  0  0  0  0  0  0  0  0  0
   -4.2400   -2.2315    4.6362 C   0  0  0  0  0  0  0  0  0  0  0  0
   -7.0784   -1.1965    4.9487 H   0  0  0  0  0  0  0  0  0  0  0  0
   -5.8825   -0.9091    6.2179 H   0  0  0  0  0  0  0  0  0  0  0  0
   -6.3375    0.4091    5.1320 H   0  0  0  0  0  0  0  0  0  0  0  0
   -5.5668    0.4857    2.8831 H   0  0  0  0  0  0  0  0  0  0  0  0
   -3.3117   -1.5025    2.1353 H   0  0  0  0  0  0  0  0  0  0  0  0
   -4.4550   -0.7649    1.0481 H   0  0  0  0  0  0  0  0  0  0  0  0
   -3.5813    1.4832    1.4962 H   0  0  0  0  0  0  0  0  0  0  0  0
   -2.4907    0.8877    2.7079 H   0  0  0  0  0  0  0  0  0  0  0  0
   -2.5484    1.9752   -0.5764 H   0  0  0  0  0  0  0  0  0  0  0  0
   -1.3962    0.8850   -2.5039 H   0  0  0  0  0  0  0  0  0  0  0  0
   -0.1648    0.1842   -1.4423 H   0  0  0  0  0  0  0  0  0  0  0  0
    0.5326    2.0988   -2.3856 H   0  0  0  0  0  0  0  0  0  0  0  0
   -1.4520   -1.6716    0.4104 H   0  0  0  0  0  0  0  0  0  0  0  0
   -0.8646   -0.9641    1.9307 H   0  0  0  0  0  0  0  0  0  0  0  0
   -0.0377   -0.6140    0.4114 H   0  0  0  0  0  0  0  0  0  0  0  0
   -4.6887   -3.1606    4.2696 H   0  0  0  0  0  0  0  0  0  0  0  0
   -3.2108   -2.1978    4.2746 H   0  0  0  0  0  0  0  0  0  0  0  0
   -4.1945   -2.2794    5.7295 H   0  0  0  0  0  0  0  0  0  0  0  0
  1  2  1  0
  2  3  2  3
  3  4  1  0
  4  5  1  0
  5  6  1  0
  6  7  2  0
  7  8  1  0
  8  9  1  0
  6 10  1  0
  2 11  1  0
  1 12  1  0
  1 13  1  0
  1 14  1  0
  3 15  1  0
  4 16  1  0
  4 17  1  0
  5 18  1  0
  5 19  1  0
  7 20  1  0
  8 21  1  0
  8 22  1  0
  9 23  1  0
 10 24  1  0
 10 25  1  0
 10 26  1  0
 11 27  1  0
 11 28  1  0
 11 29  1  0
M  END
>  <_TriposChargeType>  (533) 
USER_CHARGES

>  <solvdG>  (533) 
-4.45

>  <fdG>  (533) 
-2.52

>  <fname>  (533) 
mobley_819018

>  <cname>  (533) 
 (2E)-3,7-dimethylocta-2,6-dien-1-ol

>  <dataset>  (533) 
FreeSolv

$$$$
2-chloro-1,1,1-trifluoro-ethane
     RDKit          3D

  8  7  0  0  0  0  0  0  0  0999 V2000
   -0.0165    0.7148   -0.2710 C   0  0  0  0  0  0  0  0  0  0  0  0
    0.0300   -0.7407    0.1200 C   0  0  0  0  0  0  0  0  0  0  0  0
   -1.0937   -1.1171    0.7664 F   0  0  0  0  0  0  0  0  0  0  0  0
    1.0845   -1.0063    0.9198 F   0  0  0  0  0  0  0  0  0  0  0  0
    0.1469   -1.5187   -0.9796 F   0  0  0  0  0  0  0  0  0  0  0  0
   -0.1864    1.7495    1.1631 Cl  0  0  0  0  0  0  0  0  0  0  0  0
    0.9014    1.0065   -0.7887 H   0  0  0  0  0  0  0  0  0  0  0  0
   -0.8665    0.9120   -0.9300 H   0  0  0  0  0  0  0  0  0  0  0  0
  1  2  1  0
  2  3  1  0
  2  4  1  0
  2  5  1  0
  1  6  1  0
  1  7  1  0
  1  8  1  0
M  END
>  <_TriposChargeType>  (534) 
USER_CHARGES

>  <solvdG>  (534) 
0.06

>  <fdG>  (534) 
0.23

>  <fname>  (534) 
mobley_8191186

>  <cname>  (534) 
 2-chloro-1,1,1-trifluoro-ethane

>  <dataset>  (534) 
FreeSolv

$$$$
6-chloro-N2,N4-diethyl-1,3,5-triazine-2,4-diamine
     RDKit          3D

 25 25  0  0  0  0  0  0  0  0999 V2000
    3.3389   -0.2461    2.5405 C   0  0  0  0  0  0  0  0  0  0  0  0
    3.4972   -0.5986    1.1007 C   0  0  0  0  0  0  0  0  0  0  0  0
    2.3152   -1.2363    0.5901 N   0  0  0  0  0  0  0  0  0  0  0  0
    2.1748   -1.6751   -0.7209 C   0  0  0  0  0  0  0  0  0  0  0  0
    3.2221   -1.4791   -1.5384 N   0  0  0  0  0  0  0  0  0  0  0  0
    3.0147   -1.9278   -2.7867 C   0  0  0  0  0  0  0  0  0  0  0  0
    1.9035   -2.5226   -3.2500 N   0  0  0  0  0  0  0  0  0  0  0  0
    0.9415   -2.6510   -2.3221 C   0  0  0  0  0  0  0  0  0  0  0  0
    1.0055   -2.2522   -1.0415 N   0  0  0  0  0  0  0  0  0  0  0  0
   -0.5111   -3.3990   -2.8207 Cl  0  0  0  0  0  0  0  0  0  0  0  0
    4.0721   -1.7572   -3.7059 N   0  0  0  0  0  0  0  0  0  0  0  0
    5.3134   -1.1412   -3.3546 C   0  0  0  0  0  0  0  0  0  0  0  0
    6.2471   -1.0932   -4.5193 C   0  0  0  0  0  0  0  0  0  0  0  0
    4.2422    0.2396    2.9255 H   0  0  0  0  0  0  0  0  0  0  0  0
    2.4809    0.4188    2.6875 H   0  0  0  0  0  0  0  0  0  0  0  0
    3.1674   -1.1555    3.1289 H   0  0  0  0  0  0  0  0  0  0  0  0
    4.3345   -1.2898    0.9649 H   0  0  0  0  0  0  0  0  0  0  0  0
    3.6787    0.2972    0.4995 H   0  0  0  0  0  0  0  0  0  0  0  0
    1.5307   -1.3791    1.2216 H   0  0  0  0  0  0  0  0  0  0  0  0
    3.9200   -2.0899   -4.6388 H   0  0  0  0  0  0  0  0  0  0  0  0
    5.1016   -0.1265   -2.9973 H   0  0  0  0  0  0  0  0  0  0  0  0
    5.7568   -1.7137   -2.5316 H   0  0  0  0  0  0  0  0  0  0  0  0
    7.1942   -0.6195   -4.2388 H   0  0  0  0  0  0  0  0  0  0  0  0
    6.4461   -2.1013   -4.8988 H   0  0  0  0  0  0  0  0  0  0  0  0
    5.8037   -0.5064   -5.3327 H   0  0  0  0  0  0  0  0  0  0  0  0
  1  2  1  0
  2  3  1  0
  3  4  1  0
  4  9  2  0
  4  5  1  0
  5  6  2  0
  6  7  1  0
  7  8  2  0
  8  9  1  0
  8 10  1  0
  6 11  1  0
 11 12  1  0
 12 13  1  0
  1 14  1  0
  1 15  1  0
  1 16  1  0
  2 17  1  0
  2 18  1  0
  3 19  1  0
 11 20  1  0
 12 21  1  0
 12 22  1  0
 13 23  1  0
 13 24  1  0
 13 25  1  0
M  END
>  <_TriposChargeType>  (535) 
USER_CHARGES

>  <solvdG>  (535) 
-10.22

>  <fdG>  (535) 
-10.91

>  <fname>  (535) 
mobley_8207196

>  <cname>  (535) 
 simazine

>  <dataset>  (535) 
FreeSolv

$$$$
butyric acid
     RDKit          3D

 14 13  0  0  0  0  0  0  0  0999 V2000
    0.6076   -0.7278    0.5471 C   0  0  0  0  0  0  0  0  0  0  0  0
   -0.1903   -1.3680    1.6737 C   0  0  0  0  0  0  0  0  0  0  0  0
   -0.7524   -0.3453    2.6537 C   0  0  0  0  0  0  0  0  0  0  0  0
   -1.5388   -1.0023    3.7607 C   0  0  0  0  0  0  0  0  0  0  0  0
   -1.7021   -2.2123    3.8549 O   0  0  0  0  0  0  0  0  0  0  0  0
   -2.0266   -0.1135    4.6608 O   0  0  0  0  0  0  0  0  0  0  0  0
    1.0001   -1.4816   -0.1422 H   0  0  0  0  0  0  0  0  0  0  0  0
    1.4489   -0.1490    0.9415 H   0  0  0  0  0  0  0  0  0  0  0  0
   -0.0305   -0.0489   -0.0276 H   0  0  0  0  0  0  0  0  0  0  0  0
   -1.0226   -1.9309    1.2354 H   0  0  0  0  0  0  0  0  0  0  0  0
    0.4456   -2.0899    2.1996 H   0  0  0  0  0  0  0  0  0  0  0  0
    0.0373    0.2917    3.0667 H   0  0  0  0  0  0  0  0  0  0  0  0
   -1.4408    0.3310    2.1326 H   0  0  0  0  0  0  0  0  0  0  0  0
   -1.8279    0.8285    4.4733 H   0  0  0  0  0  0  0  0  0  0  0  0
  1  2  1  0
  2  3  1  0
  3  4  1  0
  4  5  2  0
  4  6  1  0
  1  7  1  0
  1  8  1  0
  1  9  1  0
  2 10  1  0
  2 11  1  0
  3 12  1  0
  3 13  1  0
  6 14  1  0
M  END
>  <_TriposChargeType>  (536) 
USER_CHARGES

>  <solvdG>  (536) 
-6.35

>  <fdG>  (536) 
-9.43

>  <fname>  (536) 
mobley_820789

>  <cname>  (536) 
 butyric acid

>  <dataset>  (536) 
FreeSolv

$$$$
1,2,3,4-tetrachloro-5-(2,3,4,6-tetrachlorophenyl)benzene
     RDKit          3D

 22 23  0  0  0  0  0  0  0  0999 V2000
    1.8851   -1.0363   -0.1124 C   0  0  0  0  0  0  0  0  0  0  0  0
    2.9210   -1.6309    0.6081 C   0  0  0  0  0  0  0  0  0  0  0  0
    2.8783   -1.6520    2.0022 C   0  0  0  0  0  0  0  0  0  0  0  0
    1.7997   -1.0786    2.6757 C   0  0  0  0  0  0  0  0  0  0  0  0
    0.7638   -0.4841    1.9551 C   0  0  0  0  0  0  0  0  0  0  0  0
    0.8066   -0.4630    0.5610 C   0  0  0  0  0  0  0  0  0  0  0  0
   -0.4403    0.2530   -0.4027 Cl  0  0  0  0  0  0  0  0  0  0  0  0
   -0.5886    0.2359    2.7817 Cl  0  0  0  0  0  0  0  0  0  0  0  0
    1.7480   -1.1068    4.4173 Cl  0  0  0  0  0  0  0  0  0  0  0  0
    4.1836   -2.3982    2.8820 Cl  0  0  0  0  0  0  0  0  0  0  0  0
    4.0190   -2.2131   -0.1429 C   0  0  0  0  0  0  0  0  0  0  0  0
    3.9523   -3.5505   -0.5336 C   0  0  0  0  0  0  0  0  0  0  0  0
    5.0009   -4.1189   -1.2568 C   0  0  0  0  0  0  0  0  0  0  0  0
    6.1163   -3.3501   -1.5891 C   0  0  0  0  0  0  0  0  0  0  0  0
    6.1830   -2.0127   -1.1983 C   0  0  0  0  0  0  0  0  0  0  0  0
    5.1344   -1.4443   -0.4751 C   0  0  0  0  0  0  0  0  0  0  0  0
    5.2092    0.2251    0.0211 Cl  0  0  0  0  0  0  0  0  0  0  0  0
    7.5804   -1.0644   -1.6192 Cl  0  0  0  0  0  0  0  0  0  0  0  0
    7.3768   -4.1262   -2.4866 Cl  0  0  0  0  0  0  0  0  0  0  0  0
    2.5966   -4.5593   -0.1564 Cl  0  0  0  0  0  0  0  0  0  0  0  0
    1.9187   -1.0199   -1.2006 H   0  0  0  0  0  0  0  0  0  0  0  0
    4.9484   -5.1623   -1.5620 H   0  0  0  0  0  0  0  0  0  0  0  0
  1  6  2  0
  1  2  1  0
  2  3  2  0
  3  4  1  0
  4  5  2  0
  5  6  1  0
  6  7  1  0
  5  8  1  0
  4  9  1  0
  3 10  1  0
  2 11  1  0
 11 16  1  0
 11 12  2  0
 12 13  1  0
 13 14  2  0
 14 15  1  0
 15 16  2  0
 16 17  1  0
 15 18  1  0
 14 19  1  0
 12 20  1  0
  1 21  1  0
 13 22  1  0
M  END
>  <_TriposChargeType>  (537) 
USER_CHARGES

>  <solvdG>  (537) 
-4.61

>  <fdG>  (537) 
-0.04

>  <fname>  (537) 
mobley_8208692

>  <cname>  (537) 
 1,2,3,4-tetrachloro-5-(2,3,4,6-tetrachlorophenyl)benzene

>  <dataset>  (537) 
FreeSolv

$$$$
butanenitrile
     RDKit          3D

 12 11  0  0  0  0  0  0  0  0999 V2000
   -0.0177    0.2011   -1.0759 C   0  0  0  0  0  0  0  0  0  0  0  0
   -1.1844    1.1047   -1.4423 C   0  0  0  0  0  0  0  0  0  0  0  0
   -1.0966    2.4513   -0.7272 C   0  0  0  0  0  0  0  0  0  0  0  0
   -2.2279    3.3158   -1.0880 C   0  0  0  0  0  0  0  0  0  0  0  0
   -3.1208    4.0002   -1.3721 N   0  0  0  0  0  0  0  0  0  0  0  0
   -0.0893   -0.7611   -1.5930 H   0  0  0  0  0  0  0  0  0  0  0  0
    0.9370    0.6653   -1.3431 H   0  0  0  0  0  0  0  0  0  0  0  0
   -0.0116    0.0079    0.0014 H   0  0  0  0  0  0  0  0  0  0  0  0
   -1.1955    1.2559   -2.5289 H   0  0  0  0  0  0  0  0  0  0  0  0
   -2.1245    0.6021   -1.1833 H   0  0  0  0  0  0  0  0  0  0  0  0
   -0.1570    2.9512   -0.9891 H   0  0  0  0  0  0  0  0  0  0  0  0
   -1.0870    2.2966    0.3579 H   0  0  0  0  0  0  0  0  0  0  0  0
  1  2  1  0
  2  3  1  0
  3  4  1  0
  4  5  3  0
  1  6  1  0
  1  7  1  0
  1  8  1  0
  2  9  1  0
  2 10  1  0
  3 11  1  0
  3 12  1  0
M  END
>  <_TriposChargeType>  (538) 
USER_CHARGES

>  <solvdG>  (538) 
-3.64

>  <fdG>  (538) 
-2.29

>  <fname>  (538) 
mobley_8221999

>  <cname>  (538) 
 butanenitrile

>  <dataset>  (538) 
FreeSolv

$$$$
prop-1-yne
     RDKit          3D

  7  6  0  0  0  0  0  0  0  0999 V2000
   -0.7150    0.3705   -0.7408 C   0  0  0  0  0  0  0  0  0  0  0  0
   -0.6484    1.8276   -0.8449 C   0  0  0  0  0  0  0  0  0  0  0  0
   -0.5942    3.0237   -0.9302 C   0  0  0  0  0  0  0  0  0  0  0  0
    0.2427   -0.0835   -1.0131 H   0  0  0  0  0  0  0  0  0  0  0  0
   -0.9575    0.0639    0.2811 H   0  0  0  0  0  0  0  0  0  0  0  0
   -1.4831   -0.0329   -1.4075 H   0  0  0  0  0  0  0  0  0  0  0  0
   -0.5459    4.0849   -1.0060 H   0  0  0  0  0  0  0  0  0  0  0  0
  1  2  1  0
  2  3  3  0
  1  4  1  0
  1  5  1  0
  1  6  1  0
  3  7  1  0
M  END
>  <_TriposChargeType>  (539) 
USER_CHARGES

>  <solvdG>  (539) 
-0.48

>  <fdG>  (539) 
0.07

>  <fname>  (539) 
mobley_8260524

>  <cname>  (539) 
 prop-1-yne

>  <dataset>  (539) 
FreeSolv

$$$$
1,2,4,5-tetrachloro-3-(3,4-dichlorophenyl)benzene
     RDKit          3D

 22 23  0  0  0  0  0  0  0  0999 V2000
    1.8851   -1.0363   -0.1124 C   0  0  0  0  0  0  0  0  0  0  0  0
    2.9210   -1.6309    0.6081 C   0  0  0  0  0  0  0  0  0  0  0  0
    2.8783   -1.6520    2.0022 C   0  0  0  0  0  0  0  0  0  0  0  0
    1.7997   -1.0786    2.6757 C   0  0  0  0  0  0  0  0  0  0  0  0
    0.7638   -0.4841    1.9551 C   0  0  0  0  0  0  0  0  0  0  0  0
    0.8066   -0.4630    0.5610 C   0  0  0  0  0  0  0  0  0  0  0  0
   -0.2670    0.1541   -0.1873 C   0  0  0  0  0  0  0  0  0  0  0  0
   -0.2007    1.5089   -0.5128 C   0  0  0  0  0  0  0  0  0  0  0  0
   -1.2356    2.1043   -1.2340 C   0  0  0  0  0  0  0  0  0  0  0  0
   -2.3368    1.3450   -1.6296 C   0  0  0  0  0  0  0  0  0  0  0  0
   -2.4031   -0.0097   -1.3040 C   0  0  0  0  0  0  0  0  0  0  0  0
   -1.3682   -0.6052   -0.5828 C   0  0  0  0  0  0  0  0  0  0  0  0
   -1.4543   -2.2967   -0.1782 Cl  0  0  0  0  0  0  0  0  0  0  0  0
   -3.7993   -0.8871   -1.8288 Cl  0  0  0  0  0  0  0  0  0  0  0  0
   -1.2245    3.7776   -1.6752 Cl  0  0  0  0  0  0  0  0  0  0  0  0
    1.1718    2.4611   -0.0213 Cl  0  0  0  0  0  0  0  0  0  0  0  0
    1.6916   -1.0704    4.4011 Cl  0  0  0  0  0  0  0  0  0  0  0  0
    4.1940   -2.3992    2.8382 Cl  0  0  0  0  0  0  0  0  0  0  0  0
    1.9323   -1.0278   -1.1989 H   0  0  0  0  0  0  0  0  0  0  0  0
    3.7532   -2.0746    0.0671 H   0  0  0  0  0  0  0  0  0  0  0  0
   -0.0785   -0.0355    2.4784 H   0  0  0  0  0  0  0  0  0  0  0  0
   -3.1434    1.8089   -2.1941 H   0  0  0  0  0  0  0  0  0  0  0  0
  1  6  2  0
  1  2  1  0
  2  3  2  0
  3  4  1  0
  4  5  2  0
  5  6  1  0
  6  7  1  0
  7 12  1  0
  7  8  2  0
  8  9  1  0
  9 10  2  0
 10 11  1  0
 11 12  2  0
 12 13  1  0
 11 14  1  0
  9 15  1  0
  8 16  1  0
  4 17  1  0
  3 18  1  0
  1 19  1  0
  2 20  1  0
  5 21  1  0
 10 22  1  0
M  END
>  <_TriposChargeType>  (540) 
USER_CHARGES

>  <solvdG>  (540) 
-4.38

>  <fdG>  (540) 
-0.7

>  <fname>  (540) 
mobley_8311303

>  <cname>  (540) 
 1,2,4,5-tetrachloro-3-(3,4-dichlorophenyl)benzene

>  <dataset>  (540) 
FreeSolv

$$$$
chloro(difluoro)methane
     RDKit          3D

  5  4  0  0  0  0  0  0  0  0999 V2000
   -0.0244    0.0886    0.0514 C   0  0  0  0  0  0  0  0  0  0  0  0
   -1.3432   -0.2235    0.0354 F   0  0  0  0  0  0  0  0  0  0  0  0
    0.4844   -0.4007    1.2085 F   0  0  0  0  0  0  0  0  0  0  0  0
    0.7908   -0.6398   -1.3286 Cl  0  0  0  0  0  0  0  0  0  0  0  0
    0.0925    1.1753    0.0334 H   0  0  0  0  0  0  0  0  0  0  0  0
  1  2  1  0
  1  3  1  0
  1  4  1  0
  1  5  1  0
M  END
>  <_TriposChargeType>  (541) 
USER_CHARGES

>  <solvdG>  (541) 
-0.5

>  <fdG>  (541) 
-0.07

>  <fname>  (541) 
mobley_8311321

>  <cname>  (541) 
 chloro-difluoro-methane

>  <dataset>  (541) 
FreeSolv

$$$$
1-nitroethane
     RDKit          3D

 10  9  0  0  0  0  0  0  0  0999 V2000
    0.2391    0.2403    1.0420 C   0  0  0  0  0  0  0  0  0  0  0  0
    1.1261   -0.8170    1.6638 C   0  0  0  0  0  0  0  0  0  0  0  0
    2.3767   -0.9039    0.9079 N   0  0  0  0  0  4  0  0  0  0  0  0
    3.3249   -0.1750    1.2631 O   0  0  0  0  0  0  0  0  0  0  0  0
    2.4241   -1.6875   -0.0617 O   0  0  0  0  0  1  0  0  0  0  0  0
   -0.7099    0.3352    1.5819 H   0  0  0  0  0  0  0  0  0  0  0  0
    0.7246    1.2226    1.0451 H   0  0  0  0  0  0  0  0  0  0  0  0
    0.0115   -0.0207    0.0034 H   0  0  0  0  0  0  0  0  0  0  0  0
    0.6538   -1.8025    1.6321 H   0  0  0  0  0  0  0  0  0  0  0  0
    1.3844   -0.5686    2.6966 H   0  0  0  0  0  0  0  0  0  0  0  0
  1  2  1  0
  2  3  1  0
  3  4  2  0
  3  5  1  0
  1  6  1  0
  1  7  1  0
  1  8  1  0
  2  9  1  0
  2 10  1  0
M  CHG  2   3   1   5  -1
M  END
>  <_TriposChargeType>  (542) 
USER_CHARGES

>  <solvdG>  (542) 
-3.71

>  <fdG>  (542) 
-1.84

>  <fname>  (542) 
mobley_8320545

>  <cname>  (542) 
 1-nitroethane

>  <dataset>  (542) 
FreeSolv

$$$$
(1R,2S,5R)-2-isopropyl-5-methyl-cyclohexanol
     RDKit          3D

 31 31  0  0  0  0  0  0  0  0999 V2000
    0.7606   -1.4084    2.2528 C   0  0  0  0  0  0  0  0  0  0  0  0
    0.9280    0.0809    1.9574 C   0  0  2  0  0  0  0  0  0  0  0  0
    0.0671    0.6092    2.3887 H   0  0  0  0  0  0  0  0  0  0  0  0
    0.9445    0.3348    0.4454 C   0  0  0  0  0  0  0  0  0  0  0  0
    1.1545    1.8131    0.1249 C   0  0  0  0  0  0  0  0  0  0  0  0
    2.4292    2.3633    0.7777 C   0  0  2  0  0  0  0  0  0  0  0  0
    3.2985    1.8541    0.3392 H   0  0  0  0  0  0  0  0  0  0  0  0
    2.4235    2.1034    2.2931 C   0  0  1  0  0  0  0  0  0  0  0  0
    1.6377    2.7023    2.7699 H   0  0  0  0  0  0  0  0  0  0  0  0
    2.2039    0.6223    2.6097 C   0  0  0  0  0  0  0  0  0  0  0  0
    3.6723    2.5114    2.8465 O   0  0  0  0  0  0  0  0  0  0  0  0
    2.5831    3.8547    0.4675 C   0  0  0  0  0  0  0  0  0  0  0  0
    2.6731    4.0793   -1.0389 C   0  0  0  0  0  0  0  0  0  0  0  0
    1.4224    4.6454    1.0632 C   0  0  0  0  0  0  0  0  0  0  0  0
    1.5984   -1.9785    1.8404 H   0  0  0  0  0  0  0  0  0  0  0  0
    0.7220   -1.5844    3.3319 H   0  0  0  0  0  0  0  0  0  0  0  0
   -0.1651   -1.7866    1.8086 H   0  0  0  0  0  0  0  0  0  0  0  0
    1.7430   -0.2534   -0.0247 H   0  0  0  0  0  0  0  0  0  0  0  0
   -0.0002    0.0001    0.0001 H   0  0  0  0  0  0  0  0  0  0  0  0
    1.2072    1.9411   -0.9631 H   0  0  0  0  0  0  0  0  0  0  0  0
    0.2826    2.3838    0.4691 H   0  0  0  0  0  0  0  0  0  0  0  0
    3.0774    0.0449    2.2774 H   0  0  0  0  0  0  0  0  0  0  0  0
    2.1599    0.4860    3.6979 H   0  0  0  0  0  0  0  0  0  0  0  0
    3.6247    2.3305    3.7979 H   0  0  0  0  0  0  0  0  0  0  0  0
    3.5141    4.2043    0.9273 H   0  0  0  0  0  0  0  0  0  0  0  0
    2.7837    5.1425   -1.2786 H   0  0  0  0  0  0  0  0  0  0  0  0
    1.7734    3.7106   -1.5425 H   0  0  0  0  0  0  0  0  0  0  0  0
    3.5334    3.5466   -1.4577 H   0  0  0  0  0  0  0  0  0  0  0  0
    1.5168    5.7158    0.8505 H   0  0  0  0  0  0  0  0  0  0  0  0
    1.3861    4.5180    2.1504 H   0  0  0  0  0  0  0  0  0  0  0  0
    0.4662    4.3021    0.6542 H   0  0  0  0  0  0  0  0  0  0  0  0
  1  2  1  0
  2  3  1  1
  2 10  1  0
  2  4  1  0
  4  5  1  0
  5  6  1  0
  6  7  1  6
  6  8  1  0
  8  9  1  1
  8 10  1  0
  8 11  1  0
  6 12  1  0
 12 13  1  0
 12 14  1  0
  1 15  1  0
  1 16  1  0
  1 17  1  0
  4 18  1  0
  4 19  1  0
  5 20  1  0
  5 21  1  0
 10 22  1  0
 10 23  1  0
 11 24  1  0
 12 25  1  0
 13 26  1  0
 13 27  1  0
 13 28  1  0
 14 29  1  0
 14 30  1  0
 14 31  1  0
M  END
>  <_TriposChargeType>  (543) 
USER_CHARGES

>  <solvdG>  (543) 
-3.2

>  <fdG>  (543) 
-3.35

>  <fname>  (543) 
mobley_8337722

>  <cname>  (543) 
 (1R,2S,5R)-2-isopropyl-5-methylcyclohexanol

>  <dataset>  (543) 
FreeSolv

$$$$
4-methylpentan-2-one
     RDKit          3D

 19 18  0  0  0  0  0  0  0  0999 V2000
    4.7488   -1.8026    0.2531 C   0  0  0  0  0  0  0  0  0  0  0  0
    4.3444   -0.9798    1.4791 C   0  0  0  0  0  0  0  0  0  0  0  0
    5.1204   -1.4658    2.7050 C   0  0  0  0  0  0  0  0  0  0  0  0
    2.8340   -1.0707    1.7426 C   0  0  0  0  0  0  0  0  0  0  0  0
    1.9779   -0.5642    0.5921 C   0  0  0  0  0  0  0  0  0  0  0  0
    1.1628   -1.2720    0.0028 O   0  0  0  0  0  0  0  0  0  0  0  0
    2.2108    0.8638    0.1711 C   0  0  0  0  0  0  0  0  0  0  0  0
    4.2018   -1.4672   -0.6347 H   0  0  0  0  0  0  0  0  0  0  0  0
    5.8199   -1.7056    0.0448 H   0  0  0  0  0  0  0  0  0  0  0  0
    4.5275   -2.8650    0.3942 H   0  0  0  0  0  0  0  0  0  0  0  0
    4.6222    0.0661    1.2978 H   0  0  0  0  0  0  0  0  0  0  0  0
    4.8448   -0.8887    3.5940 H   0  0  0  0  0  0  0  0  0  0  0  0
    6.2012   -1.3659    2.5572 H   0  0  0  0  0  0  0  0  0  0  0  0
    4.9021   -2.5191    2.9111 H   0  0  0  0  0  0  0  0  0  0  0  0
    2.5691   -0.4639    2.6167 H   0  0  0  0  0  0  0  0  0  0  0  0
    2.5519   -2.1087    1.9534 H   0  0  0  0  0  0  0  0  0  0  0  0
    2.9826    0.8960   -0.6017 H   0  0  0  0  0  0  0  0  0  0  0  0
    1.2860    1.2852   -0.2328 H   0  0  0  0  0  0  0  0  0  0  0  0
    2.5177    1.4558    1.0367 H   0  0  0  0  0  0  0  0  0  0  0  0
  1  2  1  0
  2  3  1  0
  2  4  1  0
  4  5  1  0
  5  6  2  0
  5  7  1  0
  1  8  1  0
  1  9  1  0
  1 10  1  0
  2 11  1  0
  3 12  1  0
  3 13  1  0
  3 14  1  0
  4 15  1  0
  4 16  1  0
  7 17  1  0
  7 18  1  0
  7 19  1  0
M  END
>  <_TriposChargeType>  (544) 
USER_CHARGES

>  <solvdG>  (544) 
-3.05

>  <fdG>  (544) 
-3.12

>  <fname>  (544) 
mobley_8337977

>  <cname>  (544) 
 4-methylpentan-2-one

>  <dataset>  (544) 
FreeSolv

$$$$
N-ethylethanamine
     RDKit          3D

 16 15  0  0  0  0  0  0  0  0999 V2000
    1.5859   -1.2295    2.8925 C   0  0  0  0  0  0  0  0  0  0  0  0
    1.2109   -0.9764    1.4719 C   0  0  0  0  0  0  0  0  0  0  0  0
    2.3152   -1.2363    0.5901 N   0  0  0  0  0  0  0  0  0  0  0  0
    1.9593   -0.9912   -0.8085 C   0  0  0  0  0  0  0  0  0  0  0  0
    3.1193   -1.2688   -1.6871 C   0  0  0  0  0  0  0  0  0  0  0  0
    0.7413   -1.0302    3.5610 H   0  0  0  0  0  0  0  0  0  0  0  0
    1.9188   -2.2641    3.0298 H   0  0  0  0  0  0  0  0  0  0  0  0
    2.4102   -0.5671    3.1827 H   0  0  0  0  0  0  0  0  0  0  0  0
    0.9122    0.0671    1.3343 H   0  0  0  0  0  0  0  0  0  0  0  0
    0.3825   -1.6231    1.1681 H   0  0  0  0  0  0  0  0  0  0  0  0
    3.1109   -0.6341    0.8301 H   0  0  0  0  0  0  0  0  0  0  0  0
    1.1216   -1.6458   -1.0312 H   0  0  0  0  0  0  0  0  0  0  0  0
    1.6449    0.0467   -0.8672 H   0  0  0  0  0  0  0  0  0  0  0  0
    2.8740   -1.0913   -2.7398 H   0  0  0  0  0  0  0  0  0  0  0  0
    3.9848   -0.6571   -1.4100 H   0  0  0  0  0  0  0  0  0  0  0  0
    3.4009   -2.3230   -1.5788 H   0  0  0  0  0  0  0  0  0  0  0  0
  1  2  1  0
  2  3  1  0
  3  4  1  0
  4  5  1  0
  1  6  1  0
  1  7  1  0
  1  8  1  0
  2  9  1  0
  2 10  1  0
  3 11  1  0
  4 12  1  0
  4 13  1  0
  5 14  1  0
  5 15  1  0
  5 16  1  0
M  END
>  <_TriposChargeType>  (545) 
USER_CHARGES

>  <solvdG>  (545) 
-4.07

>  <fdG>  (545) 
-2.99

>  <fname>  (545) 
mobley_8426916

>  <cname>  (545) 
 N-ethylethanamine

>  <dataset>  (545) 
FreeSolv

$$$$
propanamide
     RDKit          3D

 12 11  0  0  0  0  0  0  0  0999 V2000
    0.6297    0.2716    0.8536 C   0  0  0  0  0  0  0  0  0  0  0  0
    1.0473   -0.9600    1.6362 C   0  0  0  0  0  0  0  0  0  0  0  0
   -0.1381   -1.7285    2.1839 C   0  0  0  0  0  0  0  0  0  0  0  0
   -1.3075   -1.3952    2.0155 O   0  0  0  0  0  0  0  0  0  0  0  0
    0.2453   -2.8463    2.8933 N   0  0  0  0  0  0  0  0  0  0  0  0
    1.5103    0.7994    0.4748 H   0  0  0  0  0  0  0  0  0  0  0  0
   -0.0000    0.0000    0.0000 H   0  0  0  0  0  0  0  0  0  0  0  0
    0.0605    0.9634    1.4834 H   0  0  0  0  0  0  0  0  0  0  0  0
    1.6871   -0.6636    2.4751 H   0  0  0  0  0  0  0  0  0  0  0  0
    1.6257   -1.6288    0.9888 H   0  0  0  0  0  0  0  0  0  0  0  0
    1.2196   -3.1020    3.0184 H   0  0  0  0  0  0  0  0  0  0  0  0
   -0.4449   -3.4571    3.3176 H   0  0  0  0  0  0  0  0  0  0  0  0
  1  2  1  0
  2  3  1  0
  3  4  2  0
  3  5  1  0
  1  6  1  0
  1  7  1  0
  1  8  1  0
  2  9  1  0
  2 10  1  0
  5 11  1  0
  5 12  1  0
M  END
>  <_TriposChargeType>  (546) 
USER_CHARGES

>  <solvdG>  (546) 
-9.4

>  <fdG>  (546) 
-8.31

>  <fname>  (546) 
mobley_8427539

>  <cname>  (546) 
 propionamide

>  <dataset>  (546) 
FreeSolv

$$$$
2,4-dimethylpentane
     RDKit          3D

 23 22  0  0  0  0  0  0  0  0999 V2000
   -0.1769   -0.3057   -1.0577 C   0  0  0  0  0  0  0  0  0  0  0  0
   -1.6117    0.0267   -1.4683 C   0  0  0  0  0  0  0  0  0  0  0  0
   -1.7823   -0.1980   -2.9739 C   0  0  0  0  0  0  0  0  0  0  0  0
   -2.6543   -0.8084   -0.6980 C   0  0  0  0  0  0  0  0  0  0  0  0
   -2.6485   -0.6472    0.8355 C   0  0  0  0  0  0  0  0  0  0  0  0
   -2.9176    0.7927    1.2735 C   0  0  0  0  0  0  0  0  0  0  0  0
   -3.6946   -1.5788    1.4553 C   0  0  0  0  0  0  0  0  0  0  0  0
   -0.0349   -0.1510    0.0174 H   0  0  0  0  0  0  0  0  0  0  0  0
    0.0658   -1.3516   -1.2676 H   0  0  0  0  0  0  0  0  0  0  0  0
    0.5441    0.3260   -1.5875 H   0  0  0  0  0  0  0  0  0  0  0  0
   -1.7883    1.0915   -1.2770 H   0  0  0  0  0  0  0  0  0  0  0  0
   -2.8051    0.0349   -3.2887 H   0  0  0  0  0  0  0  0  0  0  0  0
   -1.0982    0.4337   -3.5508 H   0  0  0  0  0  0  0  0  0  0  0  0
   -1.5834   -1.2425   -3.2365 H   0  0  0  0  0  0  0  0  0  0  0  0
   -2.5022   -1.8697   -0.9376 H   0  0  0  0  0  0  0  0  0  0  0  0
   -3.6538   -0.5522   -1.0753 H   0  0  0  0  0  0  0  0  0  0  0  0
   -1.6708   -0.9509    1.2274 H   0  0  0  0  0  0  0  0  0  0  0  0
   -2.9093    0.8860    2.3636 H   0  0  0  0  0  0  0  0  0  0  0  0
   -2.1675    1.4786    0.8655 H   0  0  0  0  0  0  0  0  0  0  0  0
   -3.9025    1.1259    0.9285 H   0  0  0  0  0  0  0  0  0  0  0  0
   -3.7067   -1.4796    2.5460 H   0  0  0  0  0  0  0  0  0  0  0  0
   -4.6998   -1.3523    1.0835 H   0  0  0  0  0  0  0  0  0  0  0  0
   -3.4728   -2.6249    1.2191 H   0  0  0  0  0  0  0  0  0  0  0  0
  1  2  1  0
  2  3  1  0
  2  4  1  0
  4  5  1  0
  5  6  1  0
  5  7  1  0
  1  8  1  0
  1  9  1  0
  1 10  1  0
  2 11  1  0
  3 12  1  0
  3 13  1  0
  3 14  1  0
  4 15  1  0
  4 16  1  0
  5 17  1  0
  6 18  1  0
  6 19  1  0
  6 20  1  0
  7 21  1  0
  7 22  1  0
  7 23  1  0
M  END
>  <_TriposChargeType>  (547) 
USER_CHARGES

>  <solvdG>  (547) 
2.83

>  <fdG>  (547) 
2.76

>  <fname>  (547) 
mobley_8436428

>  <cname>  (547) 
 2,4-dimethylpentane

>  <dataset>  (547) 
FreeSolv

$$$$
N,N-diethylethanamine
     RDKit          3D

 22 21  0  0  0  0  0  0  0  0999 V2000
   -1.0862    0.8639    1.5853 C   0  0  0  0  0  0  0  0  0  0  0  0
   -0.2717   -0.2549    1.0309 C   0  0  0  0  0  0  0  0  0  0  0  0
    0.9013   -0.5170    1.8640 N   0  0  0  0  0  0  0  0  0  0  0  0
    1.7513    0.6707    1.9381 C   0  0  0  0  0  0  0  0  0  0  0  0
    2.9379    0.3996    2.7833 C   0  0  0  0  0  0  0  0  0  0  0  0
    1.6567   -1.6543    1.3398 C   0  0  0  0  0  0  0  0  0  0  0  0
    0.8081   -2.8689    1.3233 C   0  0  0  0  0  0  0  0  0  0  0  0
   -1.9635    1.0567    0.9583 H   0  0  0  0  0  0  0  0  0  0  0  0
   -1.4143    0.6393    2.6060 H   0  0  0  0  0  0  0  0  0  0  0  0
   -0.4853    1.7807    1.6167 H   0  0  0  0  0  0  0  0  0  0  0  0
    0.0815   -0.0101    0.0246 H   0  0  0  0  0  0  0  0  0  0  0  0
   -0.8594   -1.1764    0.9835 H   0  0  0  0  0  0  0  0  0  0  0  0
    2.0338    0.9119    0.9169 H   0  0  0  0  0  0  0  0  0  0  0  0
    1.1346    1.4653    2.3488 H   0  0  0  0  0  0  0  0  0  0  0  0
    3.5881    1.2786    2.8513 H   0  0  0  0  0  0  0  0  0  0  0  0
    2.6458    0.0877    3.7919 H   0  0  0  0  0  0  0  0  0  0  0  0
    3.5168   -0.4146    2.3312 H   0  0  0  0  0  0  0  0  0  0  0  0
    1.9777   -1.3764    0.3396 H   0  0  0  0  0  0  0  0  0  0  0  0
    2.5217   -1.7733    1.9863 H   0  0  0  0  0  0  0  0  0  0  0  0
    1.3567   -3.7332    0.9333 H   0  0  0  0  0  0  0  0  0  0  0  0
    0.4287   -3.1036    2.3238 H   0  0  0  0  0  0  0  0  0  0  0  0
   -0.0527   -2.6913    0.6676 H   0  0  0  0  0  0  0  0  0  0  0  0
  1  2  1  0
  2  3  1  0
  3  4  1  0
  4  5  1  0
  3  6  1  0
  6  7  1  0
  1  8  1  0
  1  9  1  0
  1 10  1  0
  2 11  1  0
  2 12  1  0
  4 13  1  0
  4 14  1  0
  5 15  1  0
  5 16  1  0
  5 17  1  0
  6 18  1  0
  6 19  1  0
  7 20  1  0
  7 21  1  0
  7 22  1  0
M  END
>  <_TriposChargeType>  (548) 
USER_CHARGES

>  <solvdG>  (548) 
-3.22

>  <fdG>  (548) 
-1.96

>  <fname>  (548) 
mobley_8449031

>  <cname>  (548) 
 N,N-diethylethanamine

>  <dataset>  (548) 
FreeSolv

$$$$
(E)-hept-2-ene
     RDKit          3D

 21 20  0  0  0  0  0  0  0  0999 V2000
    2.5442   -2.3092    4.0254 C   0  0  0  0  0  0  0  0  0  0  0  0
    2.7860   -2.0758    2.5420 C   0  0  0  0  0  0  0  0  0  0  0  0
    1.8091   -1.0434    1.9736 C   0  0  0  0  0  0  0  0  0  0  0  0
    2.0180   -0.7777    0.4795 C   0  0  0  0  0  0  0  0  0  0  0  0
    1.0587    0.2352   -0.0758 C   0  0  0  0  0  0  0  0  0  0  0  0
    1.4387    1.3898   -0.6418 C   0  0  0  0  0  0  0  0  0  0  0  0
    0.4863    2.3962   -1.1971 C   0  0  0  0  0  0  0  0  0  0  0  0
    3.2456   -3.0481    4.4256 H   0  0  0  0  0  0  0  0  0  0  0  0
    2.6616   -1.3806    4.5931 H   0  0  0  0  0  0  0  0  0  0  0  0
    1.5280   -2.6811    4.1898 H   0  0  0  0  0  0  0  0  0  0  0  0
    2.6762   -3.0260    2.0066 H   0  0  0  0  0  0  0  0  0  0  0  0
    3.8198   -1.7407    2.4017 H   0  0  0  0  0  0  0  0  0  0  0  0
    0.7828   -1.4033    2.1187 H   0  0  0  0  0  0  0  0  0  0  0  0
    1.8960   -0.1043    2.5347 H   0  0  0  0  0  0  0  0  0  0  0  0
    1.8702   -1.7168   -0.0675 H   0  0  0  0  0  0  0  0  0  0  0  0
    3.0571   -0.4743    0.3033 H   0  0  0  0  0  0  0  0  0  0  0  0
    0.0006   -0.0059   -0.0117 H   0  0  0  0  0  0  0  0  0  0  0  0
    2.4961    1.6314   -0.7108 H   0  0  0  0  0  0  0  0  0  0  0  0
    0.2044    3.1116   -0.4185 H   0  0  0  0  0  0  0  0  0  0  0  0
   -0.4208    1.8955   -1.5492 H   0  0  0  0  0  0  0  0  0  0  0  0
    0.9146    2.9550   -2.0352 H   0  0  0  0  0  0  0  0  0  0  0  0
  1  2  1  0
  2  3  1  0
  3  4  1  0
  4  5  1  0
  5  6  2  0
  6  7  1  0
  1  8  1  0
  1  9  1  0
  1 10  1  0
  2 11  1  0
  2 12  1  0
  3 13  1  0
  3 14  1  0
  4 15  1  0
  4 16  1  0
  5 17  1  0
  6 18  1  0
  7 19  1  0
  7 20  1  0
  7 21  1  0
M  END
>  <_TriposChargeType>  (549) 
USER_CHARGES

>  <solvdG>  (549) 
1.68

>  <fdG>  (549) 
2.78

>  <fname>  (549) 
mobley_8467917

>  <cname>  (549) 
 hept-2-ene

>  <dataset>  (549) 
FreeSolv

$$$$
pentanal
     RDKit          3D

 16 15  0  0  0  0  0  0  0  0999 V2000
   -1.1145    1.9923   -0.6985 C   0  0  0  0  0  0  0  0  0  0  0  0
   -1.0622    0.5172   -0.3337 C   0  0  0  0  0  0  0  0  0  0  0  0
    0.3521    0.0848    0.0501 C   0  0  0  0  0  0  0  0  0  0  0  0
    0.3998   -1.3953    0.4152 C   0  0  0  0  0  0  0  0  0  0  0  0
    1.7858   -1.8542    0.7996 C   0  0  0  0  0  0  0  0  0  0  0  0
    2.7789   -1.1352    0.8233 O   0  0  0  0  0  0  0  0  0  0  0  0
   -2.1352    2.2797   -0.9695 H   0  0  0  0  0  0  0  0  0  0  0  0
   -0.4629    2.2089   -1.5511 H   0  0  0  0  0  0  0  0  0  0  0  0
   -0.7982    2.6164    0.1436 H   0  0  0  0  0  0  0  0  0  0  0  0
   -1.4150   -0.0763   -1.1852 H   0  0  0  0  0  0  0  0  0  0  0  0
   -1.7485    0.3285    0.5001 H   0  0  0  0  0  0  0  0  0  0  0  0
    0.7060    0.6861    0.8970 H   0  0  0  0  0  0  0  0  0  0  0  0
    1.0381    0.2816   -0.7834 H   0  0  0  0  0  0  0  0  0  0  0  0
    0.0732   -2.0088   -0.4314 H   0  0  0  0  0  0  0  0  0  0  0  0
   -0.2623   -1.6023    1.2627 H   0  0  0  0  0  0  0  0  0  0  0  0
    1.8628   -2.9211    1.0716 H   0  0  0  0  0  0  0  0  0  0  0  0
  1  2  1  0
  2  3  1  0
  3  4  1  0
  4  5  1  0
  5  6  2  0
  1  7  1  0
  1  8  1  0
  1  9  1  0
  2 10  1  0
  2 11  1  0
  3 12  1  0
  3 13  1  0
  4 14  1  0
  4 15  1  0
  5 16  1  0
M  END
>  <_TriposChargeType>  (550) 
USER_CHARGES

>  <solvdG>  (550) 
-3.03

>  <fdG>  (550) 
-2.93

>  <fname>  (550) 
mobley_8492526

>  <cname>  (550) 
 pentanal

>  <dataset>  (550) 
FreeSolv

$$$$
pentyl acetate
     RDKit          3D

 23 22  0  0  0  0  0  0  0  0999 V2000
    0.7898   -0.3889    0.6495 C   0  0  0  0  0  0  0  0  0  0  0  0
    1.6171   -1.4421   -0.0701 C   0  0  0  0  0  0  0  0  0  0  0  0
    2.2938   -0.8687   -1.3148 C   0  0  0  0  0  0  0  0  0  0  0  0
    3.1237   -1.9294   -2.0346 C   0  0  0  0  0  0  0  0  0  0  0  0
    3.8013   -1.3663   -3.2758 C   0  0  0  0  0  0  0  0  0  0  0  0
    4.5541   -2.3990   -3.8966 O   0  0  0  0  0  0  0  0  0  0  0  0
    5.2263   -2.0453   -5.0342 C   0  0  0  0  0  0  0  0  0  0  0  0
    5.2328   -0.9361   -5.5507 O   0  0  0  0  0  0  0  0  0  0  0  0
    5.9720   -3.2274   -5.5752 C   0  0  0  0  0  0  0  0  0  0  0  0
    0.3090   -0.8081    1.5392 H   0  0  0  0  0  0  0  0  0  0  0  0
    1.4137    0.4548    0.9610 H   0  0  0  0  0  0  0  0  0  0  0  0
    0.0059   -0.0059   -0.0114 H   0  0  0  0  0  0  0  0  0  0  0  0
    0.9678   -2.2795   -0.3511 H   0  0  0  0  0  0  0  0  0  0  0  0
    2.3748   -1.8355    0.6176 H   0  0  0  0  0  0  0  0  0  0  0  0
    1.5325   -0.4720   -1.9975 H   0  0  0  0  0  0  0  0  0  0  0  0
    2.9393   -0.0293   -1.0281 H   0  0  0  0  0  0  0  0  0  0  0  0
    2.4898   -2.7778   -2.3208 H   0  0  0  0  0  0  0  0  0  0  0  0
    3.8852   -2.3389   -1.3593 H   0  0  0  0  0  0  0  0  0  0  0  0
    4.4811   -0.5494   -3.0134 H   0  0  0  0  0  0  0  0  0  0  0  0
    3.0602   -0.9971   -3.9918 H   0  0  0  0  0  0  0  0  0  0  0  0
    5.3373   -3.7784   -6.2735 H   0  0  0  0  0  0  0  0  0  0  0  0
    6.2912   -3.8726   -4.7528 H   0  0  0  0  0  0  0  0  0  0  0  0
    6.8609   -2.8813   -6.1106 H   0  0  0  0  0  0  0  0  0  0  0  0
  1  2  1  0
  2  3  1  0
  3  4  1  0
  4  5  1  0
  5  6  1  0
  6  7  1  0
  7  8  2  0
  7  9  1  0
  1 10  1  0
  1 11  1  0
  1 12  1  0
  2 13  1  0
  2 14  1  0
  3 15  1  0
  3 16  1  0
  4 17  1  0
  4 18  1  0
  5 19  1  0
  5 20  1  0
  9 21  1  0
  9 22  1  0
  9 23  1  0
M  END
>  <_TriposChargeType>  (551) 
USER_CHARGES

>  <solvdG>  (551) 
-2.51

>  <fdG>  (551) 
-2.56

>  <fname>  (551) 
mobley_8514745

>  <cname>  (551) 
 pentyl acetate

>  <dataset>  (551) 
FreeSolv

$$$$
oct-1-yne
     RDKit          3D

 22 21  0  0  0  0  0  0  0  0999 V2000
    1.8181   -1.2743    2.9623 C   0  0  0  0  0  0  0  0  0  0  0  0
    1.2932   -1.4707    1.5489 C   0  0  0  0  0  0  0  0  0  0  0  0
    0.5507   -0.2314    1.0499 C   0  0  0  0  0  0  0  0  0  0  0  0
    0.0244   -0.4332   -0.3721 C   0  0  0  0  0  0  0  0  0  0  0  0
   -0.7189    0.8070   -0.8718 C   0  0  0  0  0  0  0  0  0  0  0  0
   -1.2450    0.6057   -2.2929 C   0  0  0  0  0  0  0  0  0  0  0  0
   -1.9579    1.7996   -2.7679 C   0  0  0  0  0  0  0  0  0  0  0  0
   -2.5417    2.7732   -3.1587 C   0  0  0  0  0  0  0  0  0  0  0  0
    2.3481   -2.1661    3.3114 H   0  0  0  0  0  0  0  0  0  0  0  0
    0.9895   -1.0808    3.6507 H   0  0  0  0  0  0  0  0  0  0  0  0
    2.5061   -0.4242    3.0107 H   0  0  0  0  0  0  0  0  0  0  0  0
    2.1333   -1.6956    0.8816 H   0  0  0  0  0  0  0  0  0  0  0  0
    0.6236   -2.3385    1.5315 H   0  0  0  0  0  0  0  0  0  0  0  0
    1.2238    0.6342    1.0733 H   0  0  0  0  0  0  0  0  0  0  0  0
   -0.2860   -0.0083    1.7233 H   0  0  0  0  0  0  0  0  0  0  0  0
   -0.6487   -1.2988   -0.3951 H   0  0  0  0  0  0  0  0  0  0  0  0
    0.8613   -0.6559   -1.0452 H   0  0  0  0  0  0  0  0  0  0  0  0
   -1.5535    1.0329   -0.1958 H   0  0  0  0  0  0  0  0  0  0  0  0
   -0.0473    1.6747   -0.8443 H   0  0  0  0  0  0  0  0  0  0  0  0
   -1.9196   -0.2579   -2.3204 H   0  0  0  0  0  0  0  0  0  0  0  0
   -0.4116    0.3844   -2.9699 H   0  0  0  0  0  0  0  0  0  0  0  0
   -3.0605    3.6364   -3.5044 H   0  0  0  0  0  0  0  0  0  0  0  0
  1  2  1  0
  2  3  1  0
  3  4  1  0
  4  5  1  0
  5  6  1  0
  6  7  1  0
  7  8  3  0
  1  9  1  0
  1 10  1  0
  1 11  1  0
  2 12  1  0
  2 13  1  0
  3 14  1  0
  3 15  1  0
  4 16  1  0
  4 17  1  0
  5 18  1  0
  5 19  1  0
  6 20  1  0
  6 21  1  0
  8 22  1  0
M  END
>  <_TriposChargeType>  (552) 
USER_CHARGES

>  <solvdG>  (552) 
0.71

>  <fdG>  (552) 
0.83

>  <fname>  (552) 
mobley_8522124

>  <cname>  (552) 
 oct-1-yne

>  <dataset>  (552) 
FreeSolv

$$$$
1-iodopentane
     RDKit          3D

 17 16  0  0  0  0  0  0  0  0999 V2000
    2.1534   -1.3783   -1.4510 C   0  0  0  0  0  0  0  0  0  0  0  0
    1.2425   -0.2585   -0.9722 C   0  0  0  0  0  0  0  0  0  0  0  0
    0.4443   -0.6145    0.2839 C   0  0  0  0  0  0  0  0  0  0  0  0
   -0.4711    0.5157    0.7620 C   0  0  0  0  0  0  0  0  0  0  0  0
   -1.2415    0.1040    2.0170 C   0  0  0  0  0  0  0  0  0  0  0  0
   -2.5159    1.6901    2.6745 I   0  0  0  0  0  0  0  0  0  0  0  0
    2.7072   -1.0891   -2.3489 H   0  0  0  0  0  0  0  0  0  0  0  0
    2.8862   -1.6234   -0.6754 H   0  0  0  0  0  0  0  0  0  0  0  0
    1.5801   -2.2837   -1.6733 H   0  0  0  0  0  0  0  0  0  0  0  0
    0.5590    0.0266   -1.7806 H   0  0  0  0  0  0  0  0  0  0  0  0
    1.8588    0.6218   -0.7535 H   0  0  0  0  0  0  0  0  0  0  0  0
    1.1553   -0.8619    1.0820 H   0  0  0  0  0  0  0  0  0  0  0  0
   -0.1491   -1.5181    0.0983 H   0  0  0  0  0  0  0  0  0  0  0  0
    0.1309    1.4093    0.9683 H   0  0  0  0  0  0  0  0  0  0  0  0
   -1.1794    0.7811   -0.0315 H   0  0  0  0  0  0  0  0  0  0  0  0
   -0.5423   -0.1547    2.8198 H   0  0  0  0  0  0  0  0  0  0  0  0
   -1.8465   -0.7861    1.8113 H   0  0  0  0  0  0  0  0  0  0  0  0
  1  2  1  0
  2  3  1  0
  3  4  1  0
  4  5  1  0
  5  6  1  0
  1  7  1  0
  1  8  1  0
  1  9  1  0
  2 10  1  0
  2 11  1  0
  3 12  1  0
  3 13  1  0
  4 14  1  0
  4 15  1  0
  5 16  1  0
  5 17  1  0
M  END
>  <_TriposChargeType>  (553) 
USER_CHARGES

>  <solvdG>  (553) 
-0.14

>  <fdG>  (553) 
-0.11

>  <fname>  (553) 
mobley_8525830

>  <cname>  (553) 
 1-iodopentane

>  <dataset>  (553) 
FreeSolv

$$$$
4-fluorophenol
     RDKit          3D

 13 13  0  0  0  0  0  0  0  0999 V2000
    1.8851   -1.0363   -0.1124 C   0  0  0  0  0  0  0  0  0  0  0  0
    2.9210   -1.6309    0.6081 C   0  0  0  0  0  0  0  0  0  0  0  0
    2.8783   -1.6520    2.0022 C   0  0  0  0  0  0  0  0  0  0  0  0
    1.7997   -1.0786    2.6757 C   0  0  0  0  0  0  0  0  0  0  0  0
    0.7638   -0.4841    1.9551 C   0  0  0  0  0  0  0  0  0  0  0  0
    0.8066   -0.4630    0.5610 C   0  0  0  0  0  0  0  0  0  0  0  0
   -0.2047    0.1169   -0.1414 O   0  0  0  0  0  0  0  0  0  0  0  0
    3.8731   -2.2232    2.6937 F   0  0  0  0  0  0  0  0  0  0  0  0
    1.9242   -1.0237   -1.1984 H   0  0  0  0  0  0  0  0  0  0  0  0
    3.7604   -2.0783    0.0842 H   0  0  0  0  0  0  0  0  0  0  0  0
    1.7667   -1.0960    3.7611 H   0  0  0  0  0  0  0  0  0  0  0  0
   -0.0743   -0.0401    2.4849 H   0  0  0  0  0  0  0  0  0  0  0  0
   -0.0325    0.0525   -1.0944 H   0  0  0  0  0  0  0  0  0  0  0  0
  1  6  2  0
  1  2  1  0
  2  3  2  0
  3  4  1  0
  4  5  2  0
  5  6  1  0
  6  7  1  0
  3  8  1  0
  1  9  1  0
  2 10  1  0
  4 11  1  0
  5 12  1  0
  7 13  1  0
M  END
>  <_TriposChargeType>  (554) 
USER_CHARGES

>  <solvdG>  (554) 
-6.19

>  <fdG>  (554) 
-4.96

>  <fname>  (554) 
mobley_852937

>  <cname>  (554) 
 4-fluorophenol

>  <dataset>  (554) 
FreeSolv

$$$$
4-methylmorpholine
     RDKit          3D

 18 18  0  0  0  0  0  0  0  0999 V2000
    0.9621   -2.0406   -1.4116 C   0  0  0  0  0  0  0  0  0  0  0  0
    0.2058   -0.8932   -1.9086 N   0  0  0  0  0  0  0  0  0  0  0  0
   -1.2153   -1.2330   -2.0646 C   0  0  0  0  0  0  0  0  0  0  0  0
   -1.9854   -0.0174   -2.5727 C   0  0  0  0  0  0  0  0  0  0  0  0
   -1.8315    1.0804   -1.6724 O   0  0  0  0  0  0  0  0  0  0  0  0
   -0.4555    1.4387   -1.5394 C   0  0  0  0  0  0  0  0  0  0  0  0
    0.3521    0.2583   -1.0073 C   0  0  0  0  0  0  0  0  0  0  0  0
    0.8454   -2.8899   -2.0899 H   0  0  0  0  0  0  0  0  0  0  0  0
    0.6024   -2.3299   -0.4205 H   0  0  0  0  0  0  0  0  0  0  0  0
    2.0241   -1.7909   -1.3398 H   0  0  0  0  0  0  0  0  0  0  0  0
   -1.3338   -2.0534   -2.7816 H   0  0  0  0  0  0  0  0  0  0  0  0
   -1.6368   -1.5566   -1.1039 H   0  0  0  0  0  0  0  0  0  0  0  0
   -1.6549    0.2822   -3.5749 H   0  0  0  0  0  0  0  0  0  0  0  0
   -3.0532   -0.2507   -2.6328 H   0  0  0  0  0  0  0  0  0  0  0  0
   -0.0726    1.7872   -2.5061 H   0  0  0  0  0  0  0  0  0  0  0  0
   -0.3956    2.2767   -0.8374 H   0  0  0  0  0  0  0  0  0  0  0  0
    1.4056    0.5516   -0.9335 H   0  0  0  0  0  0  0  0  0  0  0  0
   -0.0006   -0.0002   -0.0003 H   0  0  0  0  0  0  0  0  0  0  0  0
  1  2  1  0
  2  7  1  0
  2  3  1  0
  3  4  1  0
  4  5  1  0
  5  6  1  0
  6  7  1  0
  1  8  1  0
  1  9  1  0
  1 10  1  0
  3 11  1  0
  3 12  1  0
  4 13  1  0
  4 14  1  0
  6 15  1  0
  6 16  1  0
  7 17  1  0
  7 18  1  0
M  END
>  <_TriposChargeType>  (555) 
USER_CHARGES

>  <solvdG>  (555) 
-6.32

>  <fdG>  (555) 
-5.77

>  <fname>  (555) 
mobley_8558116

>  <cname>  (555) 
 4-methylmorpholine

>  <dataset>  (555) 
FreeSolv

$$$$
butanal
     RDKit          3D

 13 12  0  0  0  0  0  0  0  0999 V2000
   -1.2663   -1.0584    0.6899 C   0  0  0  0  0  0  0  0  0  0  0  0
   -0.6335   -0.0320   -0.2353 C   0  0  0  0  0  0  0  0  0  0  0  0
    0.8304    0.2084    0.1144 C   0  0  0  0  0  0  0  0  0  0  0  0
    1.4839    1.2250   -0.7904 C   0  0  0  0  0  0  0  0  0  0  0  0
    0.9201    1.8063   -1.7113 O   0  0  0  0  0  0  0  0  0  0  0  0
   -2.3170   -1.2246    0.4316 H   0  0  0  0  0  0  0  0  0  0  0  0
   -0.7413   -2.0154    0.6099 H   0  0  0  0  0  0  0  0  0  0  0  0
   -1.2164   -0.7297    1.7328 H   0  0  0  0  0  0  0  0  0  0  0  0
   -1.1933    0.9087   -0.1693 H   0  0  0  0  0  0  0  0  0  0  0  0
   -0.7187   -0.3782   -1.2723 H   0  0  0  0  0  0  0  0  0  0  0  0
    0.9235    0.5747    1.1425 H   0  0  0  0  0  0  0  0  0  0  0  0
    1.4019   -0.7223    0.0303 H   0  0  0  0  0  0  0  0  0  0  0  0
    2.5462    1.4279   -0.5700 H   0  0  0  0  0  0  0  0  0  0  0  0
  1  2  1  0
  2  3  1  0
  3  4  1  0
  4  5  2  0
  1  6  1  0
  1  7  1  0
  1  8  1  0
  2  9  1  0
  2 10  1  0
  3 11  1  0
  3 12  1  0
  4 13  1  0
M  END
>  <_TriposChargeType>  (556) 
USER_CHARGES

>  <solvdG>  (556) 
-3.18

>  <fdG>  (556) 
-3.04

>  <fname>  (556) 
mobley_8573194

>  <cname>  (556) 
 butanal

>  <dataset>  (556) 
FreeSolv

$$$$
methylsulfinylmethane
     RDKit          3D

 10  9  0  0  0  0  0  0  0  0999 V2000
    0.8446   -0.5678    0.4099 C   0  0  0  0  0  0  0  0  0  0  0  0
    0.8616   -0.5489    2.2956 S   0  0  0  0  0  4  0  0  0  0  0  0
    2.1874   -1.1423    2.6713 O   0  0  0  0  0  0  0  0  0  0  0  0
    1.0227    1.2504    2.4101 C   0  0  0  0  0  0  0  0  0  0  0  0
   -0.0983   -0.1470    0.0541 H   0  0  0  0  0  0  0  0  0  0  0  0
    0.9451   -1.5986    0.0637 H   0  0  0  0  0  0  0  0  0  0  0  0
    1.6806    0.0301    0.0410 H   0  0  0  0  0  0  0  0  0  0  0  0
    1.0569    1.5391    3.4617 H   0  0  0  0  0  0  0  0  0  0  0  0
    0.1627    1.7125    1.9234 H   0  0  0  0  0  0  0  0  0  0  0  0
    1.9428    1.5539    1.9089 H   0  0  0  0  0  0  0  0  0  0  0  0
  1  2  1  0
  2  3  2  0
  2  4  1  0
  1  5  1  0
  1  6  1  0
  1  7  1  0
  4  8  1  0
  4  9  1  0
  4 10  1  0
M  END
>  <_TriposChargeType>  (557) 
USER_CHARGES

>  <solvdG>  (557) 
-9.28

>  <fdG>  (557) 
-8.24

>  <fname>  (557) 
mobley_8578590

>  <cname>  (557) 
 methylsulfinylmethane

>  <dataset>  (557) 
FreeSolv

$$$$
isobutyl acetate
     RDKit          3D

 20 19  0  0  0  0  0  0  0  0999 V2000
    0.9983   -0.3578   -0.2742 C   0  0  0  0  0  0  0  0  0  0  0  0
    1.8182    0.7470   -0.9439 C   0  0  0  0  0  0  0  0  0  0  0  0
    1.1578    1.1798   -2.2511 C   0  0  0  0  0  0  0  0  0  0  0  0
    1.9991    1.9493   -0.0132 C   0  0  0  0  0  0  0  0  0  0  0  0
    2.6754    1.5475    1.1709 O   0  0  0  0  0  0  0  0  0  0  0  0
    2.9011    2.5336    2.0913 C   0  0  0  0  0  0  0  0  0  0  0  0
    2.5763    3.7082    1.9825 O   0  0  0  0  0  0  0  0  0  0  0  0
    3.6170    1.9674    3.2801 C   0  0  0  0  0  0  0  0  0  0  0  0
    1.4668   -0.6730    0.6644 H   0  0  0  0  0  0  0  0  0  0  0  0
    0.9144   -1.2373   -0.9218 H   0  0  0  0  0  0  0  0  0  0  0  0
   -0.0135   -0.0122   -0.0385 H   0  0  0  0  0  0  0  0  0  0  0  0
    2.8075    0.3294   -1.1709 H   0  0  0  0  0  0  0  0  0  0  0  0
    1.7384    1.9708   -2.7374 H   0  0  0  0  0  0  0  0  0  0  0  0
    0.1511    1.5698   -2.0675 H   0  0  0  0  0  0  0  0  0  0  0  0
    1.0744    0.3418   -2.9516 H   0  0  0  0  0  0  0  0  0  0  0  0
    2.6000    2.7249   -0.4995 H   0  0  0  0  0  0  0  0  0  0  0  0
    1.0323    2.3812    0.2672 H   0  0  0  0  0  0  0  0  0  0  0  0
    4.6972    2.0356    3.1296 H   0  0  0  0  0  0  0  0  0  0  0  0
    3.3141    0.9289    3.4355 H   0  0  0  0  0  0  0  0  0  0  0  0
    3.3520    2.5438    4.1712 H   0  0  0  0  0  0  0  0  0  0  0  0
  1  2  1  0
  2  3  1  0
  2  4  1  0
  4  5  1  0
  5  6  1  0
  6  7  2  0
  6  8  1  0
  1  9  1  0
  1 10  1  0
  1 11  1  0
  2 12  1  0
  3 13  1  0
  3 14  1  0
  3 15  1  0
  4 16  1  0
  4 17  1  0
  8 18  1  0
  8 19  1  0
  8 20  1  0
M  END
>  <_TriposChargeType>  (558) 
USER_CHARGES

>  <solvdG>  (558) 
-2.36

>  <fdG>  (558) 
-2.9

>  <fname>  (558) 
mobley_859464

>  <cname>  (558) 
 isobutyl acetate

>  <dataset>  (558) 
FreeSolv

$$$$
heptane
     RDKit          3D

 23 22  0  0  0  0  0  0  0  0999 V2000
    1.3992    1.0563   -1.8412 C   0  0  0  0  0  0  0  0  0  0  0  0
    1.4560   -0.4006   -1.4089 C   0  0  0  0  0  0  0  0  0  0  0  0
    2.6412   -0.7215   -0.4958 C   0  0  0  0  0  0  0  0  0  0  0  0
    2.6940   -2.1886   -0.0635 C   0  0  0  0  0  0  0  0  0  0  0  0
    3.8954   -2.4552    0.8462 C   0  0  0  0  0  0  0  0  0  0  0  0
    3.9505   -3.9200    1.2795 C   0  0  0  0  0  0  0  0  0  0  0  0
    5.1429   -4.1890    2.1836 C   0  0  0  0  0  0  0  0  0  0  0  0
    0.5329    1.2217   -2.4899 H   0  0  0  0  0  0  0  0  0  0  0  0
    2.2982    1.3363   -2.3991 H   0  0  0  0  0  0  0  0  0  0  0  0
    1.3012    1.7264   -0.9823 H   0  0  0  0  0  0  0  0  0  0  0  0
    1.5298   -1.0269   -2.3059 H   0  0  0  0  0  0  0  0  0  0  0  0
    0.5174   -0.6704   -0.9110 H   0  0  0  0  0  0  0  0  0  0  0  0
    3.5645   -0.4730   -1.0338 H   0  0  0  0  0  0  0  0  0  0  0  0
    2.6085   -0.0754    0.3900 H   0  0  0  0  0  0  0  0  0  0  0  0
    1.7748   -2.4563    0.4695 H   0  0  0  0  0  0  0  0  0  0  0  0
    2.7555   -2.8311   -0.9502 H   0  0  0  0  0  0  0  0  0  0  0  0
    3.8349   -1.8117    1.7324 H   0  0  0  0  0  0  0  0  0  0  0  0
    4.8212   -2.1934    0.3194 H   0  0  0  0  0  0  0  0  0  0  0  0
    3.0293   -4.1863    1.8106 H   0  0  0  0  0  0  0  0  0  0  0  0
    4.0151   -4.5672    0.3971 H   0  0  0  0  0  0  0  0  0  0  0  0
    5.1747   -5.2397    2.4889 H   0  0  0  0  0  0  0  0  0  0  0  0
    6.0824   -3.9500    1.6752 H   0  0  0  0  0  0  0  0  0  0  0  0
    5.0798   -3.5745    3.0871 H   0  0  0  0  0  0  0  0  0  0  0  0
  1  2  1  0
  2  3  1  0
  3  4  1  0
  4  5  1  0
  5  6  1  0
  6  7  1  0
  1  8  1  0
  1  9  1  0
  1 10  1  0
  2 11  1  0
  2 12  1  0
  3 13  1  0
  3 14  1  0
  4 15  1  0
  4 16  1  0
  5 17  1  0
  5 18  1  0
  6 19  1  0
  6 20  1  0
  7 21  1  0
  7 22  1  0
  7 23  1  0
M  END
>  <_TriposChargeType>  (559) 
USER_CHARGES

>  <solvdG>  (559) 
2.67

>  <fdG>  (559) 
2.92

>  <fname>  (559) 
mobley_8614858

>  <cname>  (559) 
 heptane

>  <dataset>  (559) 
FreeSolv

$$$$
(3R)-2,3-dimethylpentane
     RDKit          3D

 23 22  0  0  0  0  0  0  0  0999 V2000
    2.9897    0.4170   -0.2076 C   0  0  0  0  0  0  0  0  0  0  0  0
    1.6568   -0.3175   -0.2214 C   0  0  0  0  0  0  0  0  0  0  0  0
    0.4243    0.6095   -0.1250 C   0  0  1  0  0  0  0  0  0  0  0  0
    0.4622    1.2819   -0.9938 H   0  0  0  0  0  0  0  0  0  0  0  0
   -0.8441   -0.2415   -0.2804 C   0  0  0  0  0  0  0  0  0  0  0  0
    0.3987    1.5035    1.1480 C   0  0  0  0  0  0  0  0  0  0  0  0
   -0.8243    2.4201    1.2390 C   0  0  0  0  0  0  0  0  0  0  0  0
    0.5143    0.6742    2.4328 C   0  0  0  0  0  0  0  0  0  0  0  0
    3.8131   -0.3013   -0.2787 H   0  0  0  0  0  0  0  0  0  0  0  0
    3.0805    1.1031   -1.0544 H   0  0  0  0  0  0  0  0  0  0  0  0
    3.1164    0.9857    0.7189 H   0  0  0  0  0  0  0  0  0  0  0  0
    1.6456   -1.0059    0.6336 H   0  0  0  0  0  0  0  0  0  0  0  0
    1.5986   -0.9454   -1.1180 H   0  0  0  0  0  0  0  0  0  0  0  0
   -1.7498    0.3684   -0.2197 H   0  0  0  0  0  0  0  0  0  0  0  0
   -0.8550   -0.7821   -1.2318 H   0  0  0  0  0  0  0  0  0  0  0  0
   -0.9072   -0.9855    0.5218 H   0  0  0  0  0  0  0  0  0  0  0  0
    1.2876    2.1463    1.1238 H   0  0  0  0  0  0  0  0  0  0  0  0
   -0.8030    3.0299    2.1467 H   0  0  0  0  0  0  0  0  0  0  0  0
   -1.7447    1.8263    1.2714 H   0  0  0  0  0  0  0  0  0  0  0  0
   -0.8958    3.0896    0.3762 H   0  0  0  0  0  0  0  0  0  0  0  0
    0.4936    1.3277    3.3119 H   0  0  0  0  0  0  0  0  0  0  0  0
    1.4570    0.1180    2.4563 H   0  0  0  0  0  0  0  0  0  0  0  0
   -0.3102   -0.0382    2.5359 H   0  0  0  0  0  0  0  0  0  0  0  0
  1  2  1  0
  2  3  1  0
  3  4  1  6
  3  5  1  0
  3  6  1  0
  6  7  1  0
  6  8  1  0
  1  9  1  0
  1 10  1  0
  1 11  1  0
  2 12  1  0
  2 13  1  0
  5 14  1  0
  5 15  1  0
  5 16  1  0
  6 17  1  0
  7 18  1  0
  7 19  1  0
  7 20  1  0
  8 21  1  0
  8 22  1  0
  8 23  1  0
M  END
>  <_TriposChargeType>  (560) 
USER_CHARGES

>  <solvdG>  (560) 
2.52

>  <fdG>  (560) 
2.62

>  <fname>  (560) 
mobley_8668219

>  <cname>  (560) 
 2,3-dimethylpentane

>  <dataset>  (560) 
FreeSolv

$$$$
(2R)-2-bromo-1,1,1,2-tetrafluoro-ethane
     RDKit          3D

  8  7  0  0  0  0  0  0  0  0999 V2000
   -0.6040    0.4355   -0.0755 C   0  0  2  0  0  0  0  0  0  0  0  0
   -1.5703   -0.0730   -0.1186 H   0  0  0  0  0  0  0  0  0  0  0  0
    0.5410   -0.5398   -0.0399 C   0  0  0  0  0  0  0  0  0  0  0  0
    0.5556   -1.3294   -1.1352 F   0  0  0  0  0  0  0  0  0  0  0  0
    0.4882   -1.3349    1.0494 F   0  0  0  0  0  0  0  0  0  0  0  0
    1.7196    0.1226   -0.0056 F   0  0  0  0  0  0  0  0  0  0  0  0
   -0.4812    1.2250   -1.1731 F   0  0  0  0  0  0  0  0  0  0  0  0
   -0.6094    1.5413    1.5214 Br  0  0  0  0  0  0  0  0  0  0  0  0
  1  2  1  6
  1  3  1  0
  3  4  1  0
  3  5  1  0
  3  6  1  0
  1  7  1  0
  1  8  1  0
M  END
>  <_TriposChargeType>  (561) 
USER_CHARGES

>  <solvdG>  (561) 
0.5

>  <fdG>  (561) 
0.23

>  <fname>  (561) 
mobley_8685905

>  <cname>  (561) 
 2-bromo-1,1,1,2-tetrafluoro-ethane

>  <dataset>  (561) 
FreeSolv

$$$$
m-cresol
     RDKit          3D

 16 16  0  0  0  0  0  0  0  0999 V2000
    1.9309   -1.0139   -1.6027 C   0  0  0  0  0  0  0  0  0  0  0  0
    1.8851   -1.0363   -0.1124 C   0  0  0  0  0  0  0  0  0  0  0  0
    2.9210   -1.6309    0.6081 C   0  0  0  0  0  0  0  0  0  0  0  0
    2.8783   -1.6520    2.0022 C   0  0  0  0  0  0  0  0  0  0  0  0
    1.7997   -1.0786    2.6757 C   0  0  0  0  0  0  0  0  0  0  0  0
    0.7638   -0.4841    1.9551 C   0  0  0  0  0  0  0  0  0  0  0  0
    0.8066   -0.4630    0.5610 C   0  0  0  0  0  0  0  0  0  0  0  0
   -0.2885    0.0757    2.6119 O   0  0  0  0  0  0  0  0  0  0  0  0
    2.4387   -0.1082   -1.9482 H   0  0  0  0  0  0  0  0  0  0  0  0
    2.4636   -1.8884   -1.9907 H   0  0  0  0  0  0  0  0  0  0  0  0
    0.9207   -1.0365   -2.0252 H   0  0  0  0  0  0  0  0  0  0  0  0
    3.7654   -2.0801    0.0918 H   0  0  0  0  0  0  0  0  0  0  0  0
    3.6850   -2.1145    2.5631 H   0  0  0  0  0  0  0  0  0  0  0  0
    1.7717   -1.0978    3.7618 H   0  0  0  0  0  0  0  0  0  0  0  0
   -0.0022    0.0009    0.0015 H   0  0  0  0  0  0  0  0  0  0  0  0
   -0.1745   -0.0176    3.5712 H   0  0  0  0  0  0  0  0  0  0  0  0
  1  2  1  0
  2  7  2  0
  2  3  1  0
  3  4  2  0
  4  5  1  0
  5  6  2  0
  6  7  1  0
  6  8  1  0
  1  9  1  0
  1 10  1  0
  1 11  1  0
  3 12  1  0
  4 13  1  0
  5 14  1  0
  7 15  1  0
  8 16  1  0
M  END
>  <_TriposChargeType>  (562) 
USER_CHARGES

>  <solvdG>  (562) 
-5.49

>  <fdG>  (562) 
-5.38

>  <fname>  (562) 
mobley_8691603

>  <cname>  (562) 
 m-cresol

>  <dataset>  (562) 
FreeSolv

$$$$
N-isopropylpropan-2-amine
     RDKit          3D

 22 21  0  0  0  0  0  0  0  0999 V2000
    1.5588    0.7060    2.5693 C   0  0  0  0  0  0  0  0  0  0  0  0
    0.9766   -0.5163    1.8745 C   0  0  0  0  0  0  0  0  0  0  0  0
    0.2651   -1.4365    2.8556 C   0  0  0  0  0  0  0  0  0  0  0  0
    2.0725   -1.2697    1.2178 N   0  0  0  0  0  0  0  0  0  0  0  0
    2.4184   -0.6430   -0.0401 C   0  0  0  0  0  0  0  0  0  0  0  0
    1.4175   -1.0455   -1.1306 C   0  0  0  0  0  0  0  0  0  0  0  0
    3.8433   -1.0339   -0.4513 C   0  0  0  0  0  0  0  0  0  0  0  0
    2.0670    1.3577    1.8511 H   0  0  0  0  0  0  0  0  0  0  0  0
    0.7789    1.2914    3.0691 H   0  0  0  0  0  0  0  0  0  0  0  0
    2.2870    0.4093    3.3322 H   0  0  0  0  0  0  0  0  0  0  0  0
    0.2730   -0.1969    1.0980 H   0  0  0  0  0  0  0  0  0  0  0  0
   -0.1474   -2.3101    2.3392 H   0  0  0  0  0  0  0  0  0  0  0  0
   -0.5601   -0.9147    3.3513 H   0  0  0  0  0  0  0  0  0  0  0  0
    0.9496   -1.8040    3.6283 H   0  0  0  0  0  0  0  0  0  0  0  0
    2.8670   -1.2675    1.8434 H   0  0  0  0  0  0  0  0  0  0  0  0
    2.3841    0.4582    0.0685 H   0  0  0  0  0  0  0  0  0  0  0  0
    1.6528   -0.5864   -2.0963 H   0  0  0  0  0  0  0  0  0  0  0  0
    1.4043   -2.1331   -1.2639 H   0  0  0  0  0  0  0  0  0  0  0  0
    0.4056   -0.7368   -0.8459 H   0  0  0  0  0  0  0  0  0  0  0  0
    4.1039   -0.5590   -1.4035 H   0  0  0  0  0  0  0  0  0  0  0  0
    3.9559   -2.1165   -0.5705 H   0  0  0  0  0  0  0  0  0  0  0  0
    4.5705   -0.6953    0.2951 H   0  0  0  0  0  0  0  0  0  0  0  0
  1  2  1  0
  2  3  1  0
  2  4  1  0
  4  5  1  0
  5  6  1  0
  5  7  1  0
  1  8  1  0
  1  9  1  0
  1 10  1  0
  2 11  1  0
  3 12  1  0
  3 13  1  0
  3 14  1  0
  4 15  1  0
  5 16  1  0
  6 17  1  0
  6 18  1  0
  6 19  1  0
  7 20  1  0
  7 21  1  0
  7 22  1  0
M  END
>  <_TriposChargeType>  (563) 
USER_CHARGES

>  <solvdG>  (563) 
-3.22

>  <fdG>  (563) 
-1.99

>  <fname>  (563) 
mobley_8705848

>  <cname>  (563) 
 N-isopropylpropan-2-amine

>  <dataset>  (563) 
FreeSolv

$$$$
S-propyl N,N-dipropylcarbamothioate
     RDKit          3D

 34 33  0  0  0  0  0  0  0  0999 V2000
    0.5644   -0.4714   -1.7464 C   0  0  0  0  0  0  0  0  0  0  0  0
    0.3961   -0.2376   -0.2518 C   0  0  0  0  0  0  0  0  0  0  0  0
   -0.9766   -0.6582    0.2593 C   0  0  0  0  0  0  0  0  0  0  0  0
   -1.1302   -0.4301    1.6971 N   0  0  0  0  0  0  0  0  0  0  0  0
   -1.6470    0.8388    2.1958 C   0  0  0  0  0  0  0  0  0  0  0  0
   -3.1570    0.8143    2.3280 C   0  0  0  0  0  0  0  0  0  0  0  0
   -3.7305    2.1253    2.8469 C   0  0  0  0  0  0  0  0  0  0  0  0
   -0.7825   -1.4294    2.6200 C   0  0  0  0  0  0  0  0  0  0  0  0
   -0.8860   -1.3046    3.8384 O   0  0  0  0  0  0  0  0  0  0  0  0
   -0.1355   -2.9328    1.9400 S   0  0  0  0  0  0  0  0  0  0  0  0
    0.1602   -3.8892    3.4433 C   0  0  0  0  0  0  0  0  0  0  0  0
    0.7349   -5.2645    3.1081 C   0  0  0  0  0  0  0  0  0  0  0  0
    0.9893   -6.0822    4.3661 C   0  0  0  0  0  0  0  0  0  0  0  0
    1.5586   -0.1600   -2.0825 H   0  0  0  0  0  0  0  0  0  0  0  0
    0.4473   -1.5353   -1.9767 H   0  0  0  0  0  0  0  0  0  0  0  0
   -0.1836    0.0810   -2.3234 H   0  0  0  0  0  0  0  0  0  0  0  0
    0.5387    0.8296   -0.0460 H   0  0  0  0  0  0  0  0  0  0  0  0
    1.1813   -0.7800    0.2883 H   0  0  0  0  0  0  0  0  0  0  0  0
   -1.7570   -0.0770   -0.2420 H   0  0  0  0  0  0  0  0  0  0  0  0
   -1.1647   -1.7191    0.0661 H   0  0  0  0  0  0  0  0  0  0  0  0
   -1.3318    1.5927    1.4768 H   0  0  0  0  0  0  0  0  0  0  0  0
   -1.1531    1.0268    3.1471 H   0  0  0  0  0  0  0  0  0  0  0  0
   -3.5823    0.6135    1.3378 H   0  0  0  0  0  0  0  0  0  0  0  0
   -3.4716   -0.0027    2.9880 H   0  0  0  0  0  0  0  0  0  0  0  0
   -4.8207    2.0710    2.9293 H   0  0  0  0  0  0  0  0  0  0  0  0
   -3.3267    2.3460    3.8402 H   0  0  0  0  0  0  0  0  0  0  0  0
   -3.4756    2.9610    2.1879 H   0  0  0  0  0  0  0  0  0  0  0  0
   -0.7861   -3.9952    3.9894 H   0  0  0  0  0  0  0  0  0  0  0  0
    0.8541   -3.3338    4.0873 H   0  0  0  0  0  0  0  0  0  0  0  0
    0.0419   -5.8181    2.4630 H   0  0  0  0  0  0  0  0  0  0  0  0
    1.6793   -5.1577    2.5609 H   0  0  0  0  0  0  0  0  0  0  0  0
    1.4008   -7.0658    4.1181 H   0  0  0  0  0  0  0  0  0  0  0  0
    1.7060   -5.5677    5.0139 H   0  0  0  0  0  0  0  0  0  0  0  0
    0.0640   -6.2290    4.9323 H   0  0  0  0  0  0  0  0  0  0  0  0
  1  2  1  0
  2  3  1  0
  3  4  1  0
  4  5  1  0
  5  6  1  0
  6  7  1  0
  4  8  1  0
  8  9  2  0
  8 10  1  0
 10 11  1  0
 11 12  1  0
 12 13  1  0
  1 14  1  0
  1 15  1  0
  1 16  1  0
  2 17  1  0
  2 18  1  0
  3 19  1  0
  3 20  1  0
  5 21  1  0
  5 22  1  0
  6 23  1  0
  6 24  1  0
  7 25  1  0
  7 26  1  0
  7 27  1  0
 11 28  1  0
 11 29  1  0
 12 30  1  0
 12 31  1  0
 13 32  1  0
 13 33  1  0
 13 34  1  0
M  END
>  <_TriposChargeType>  (564) 
USER_CHARGES

>  <solvdG>  (564) 
-4.13

>  <fdG>  (564) 
-4.57

>  <fname>  (564) 
mobley_8713762

>  <cname>  (564) 
 N,N-dipropyl(propylsulfanyl)formamide

>  <dataset>  (564) 
FreeSolv

$$$$
4-chloroaniline
     RDKit          3D

 14 14  0  0  0  0  0  0  0  0999 V2000
    1.8851   -1.0363   -0.1124 C   0  0  0  0  0  0  0  0  0  0  0  0
    2.9210   -1.6309    0.6081 C   0  0  0  0  0  0  0  0  0  0  0  0
    2.8783   -1.6520    2.0022 C   0  0  0  0  0  0  0  0  0  0  0  0
    1.7997   -1.0786    2.6757 C   0  0  0  0  0  0  0  0  0  0  0  0
    0.7638   -0.4841    1.9551 C   0  0  0  0  0  0  0  0  0  0  0  0
    0.8066   -0.4630    0.5610 C   0  0  0  0  0  0  0  0  0  0  0  0
   -0.2404    0.1383   -0.1680 N   0  0  0  0  0  0  0  0  0  0  0  0
    4.1553   -2.3872    2.8912 Cl  0  0  0  0  0  0  0  0  0  0  0  0
    1.9289   -1.0255   -1.1984 H   0  0  0  0  0  0  0  0  0  0  0  0
    3.7551   -2.0748    0.0708 H   0  0  0  0  0  0  0  0  0  0  0  0
    1.7532   -1.0878    3.7616 H   0  0  0  0  0  0  0  0  0  0  0  0
   -0.0724   -0.0404    2.4896 H   0  0  0  0  0  0  0  0  0  0  0  0
   -1.0303    0.5040    0.3242 H   0  0  0  0  0  0  0  0  0  0  0  0
   -0.2207    0.1050   -1.1672 H   0  0  0  0  0  0  0  0  0  0  0  0
  1  6  2  0
  1  2  1  0
  2  3  2  0
  3  4  1  0
  4  5  2  0
  5  6  1  0
  6  7  1  0
  3  8  1  0
  1  9  1  0
  2 10  1  0
  4 11  1  0
  5 12  1  0
  7 13  1  0
  7 14  1  0
M  END
>  <_TriposChargeType>  (565) 
USER_CHARGES

>  <solvdG>  (565) 
-5.9

>  <fdG>  (565) 
-5.28

>  <fname>  (565) 
mobley_8723116

>  <cname>  (565) 
 4-chloroaniline

>  <dataset>  (565) 
FreeSolv

$$$$
3-methylbutan-2-one
     RDKit          3D

 16 15  0  0  0  0  0  0  0  0999 V2000
    1.7494    3.8113    0.3319 C   0  0  0  0  0  0  0  0  0  0  0  0
    0.2943    3.4405    0.5922 C   0  0  0  0  0  0  0  0  0  0  0  0
   -0.6398    4.5643    0.1508 C   0  0  0  0  0  0  0  0  0  0  0  0
   -0.0457    2.1350   -0.1210 C   0  0  0  0  0  0  0  0  0  0  0  0
   -0.4800    2.1062   -1.2726 O   0  0  0  0  0  0  0  0  0  0  0  0
    0.2065    0.8574    0.6395 C   0  0  0  0  0  0  0  0  0  0  0  0
    2.4257    3.0087    0.6466 H   0  0  0  0  0  0  0  0  0  0  0  0
    1.9192    4.0043   -0.7325 H   0  0  0  0  0  0  0  0  0  0  0  0
    2.0321    4.7135    0.8841 H   0  0  0  0  0  0  0  0  0  0  0  0
    0.1432    3.2810    1.6665 H   0  0  0  0  0  0  0  0  0  0  0  0
   -1.6854    4.2969    0.3382 H   0  0  0  0  0  0  0  0  0  0  0  0
   -0.5383    4.7740   -0.9198 H   0  0  0  0  0  0  0  0  0  0  0  0
   -0.4232    5.4873    0.6985 H   0  0  0  0  0  0  0  0  0  0  0  0
   -0.6833    0.5809    1.2093 H   0  0  0  0  0  0  0  0  0  0  0  0
    1.0403    1.0022    1.3324 H   0  0  0  0  0  0  0  0  0  0  0  0
    0.4720    0.0596   -0.0585 H   0  0  0  0  0  0  0  0  0  0  0  0
  1  2  1  0
  2  3  1  0
  2  4  1  0
  4  5  2  0
  4  6  1  0
  1  7  1  0
  1  8  1  0
  1  9  1  0
  2 10  1  0
  3 11  1  0
  3 12  1  0
  3 13  1  0
  6 14  1  0
  6 15  1  0
  6 16  1  0
M  END
>  <_TriposChargeType>  (566) 
USER_CHARGES

>  <solvdG>  (566) 
-3.24

>  <fdG>  (566) 
-3.08

>  <fname>  (566) 
mobley_8739734

>  <cname>  (566) 
 3-methylbutan-2-one

>  <dataset>  (566) 
FreeSolv

$$$$
2,3-dimethylpyridine
     RDKit          3D

 17 17  0  0  0  0  0  0  0  0999 V2000
    2.8944   -0.2501    3.6321 C   0  0  0  0  0  0  0  0  0  0  0  0
    1.6520   -0.6227    2.8997 C   0  0  0  0  0  0  0  0  0  0  0  0
    1.3879   -0.0684    1.6522 C   0  0  0  0  0  0  0  0  0  0  0  0
    0.2265   -0.4197    0.9733 C   0  0  0  0  0  0  0  0  0  0  0  0
   -0.6317   -1.3224    1.5803 C   0  0  0  0  0  0  0  0  0  0  0  0
   -0.4092   -1.8816    2.7908 N   0  0  0  0  0  0  0  0  0  0  0  0
    0.7299   -1.5161    3.4206 C   0  0  0  0  0  0  0  0  0  0  0  0
    0.9623   -2.1430    4.7564 C   0  0  0  0  0  0  0  0  0  0  0  0
    3.7057   -0.9343    3.3654 H   0  0  0  0  0  0  0  0  0  0  0  0
    3.1997    0.7730    3.3888 H   0  0  0  0  0  0  0  0  0  0  0  0
    2.7373   -0.2922    4.7151 H   0  0  0  0  0  0  0  0  0  0  0  0
    2.0800    0.6378    1.2016 H   0  0  0  0  0  0  0  0  0  0  0  0
   -0.0016   -0.0005    0.0001 H   0  0  0  0  0  0  0  0  0  0  0  0
   -1.5508   -1.6293    1.0922 H   0  0  0  0  0  0  0  0  0  0  0  0
    1.5205   -3.0796    4.6442 H   0  0  0  0  0  0  0  0  0  0  0  0
    1.5301   -1.4740    5.4146 H   0  0  0  0  0  0  0  0  0  0  0  0
    0.0135   -2.3596    5.2627 H   0  0  0  0  0  0  0  0  0  0  0  0
  1  2  1  0
  2  7  2  0
  2  3  1  0
  3  4  2  0
  4  5  1  0
  5  6  2  0
  6  7  1  0
  7  8  1  0
  1  9  1  0
  1 10  1  0
  1 11  1  0
  3 12  1  0
  4 13  1  0
  5 14  1  0
  8 15  1  0
  8 16  1  0
  8 17  1  0
M  END
>  <_TriposChargeType>  (567) 
USER_CHARGES

>  <solvdG>  (567) 
-4.82

>  <fdG>  (567) 
-3.37

>  <fname>  (567) 
mobley_8746821

>  <cname>  (567) 
 2,3-dimethylpyridine

>  <dataset>  (567) 
FreeSolv

$$$$
propyl formate
     RDKit          3D

 14 13  0  0  0  0  0  0  0  0999 V2000
   -0.0035   -0.6640    0.8700 C   0  0  0  0  0  0  0  0  0  0  0  0
    1.2444   -0.4434    1.7060 C   0  0  0  0  0  0  0  0  0  0  0  0
    1.2749   -1.3494    2.9273 C   0  0  0  0  0  0  0  0  0  0  0  0
    2.4640   -1.0915    3.6610 O   0  0  0  0  0  0  0  0  0  0  0  0
    2.6334   -1.8331    4.7912 C   0  0  0  0  0  0  0  0  0  0  0  0
    1.8806   -2.6858    5.2352 O   0  0  0  0  0  0  0  0  0  0  0  0
   -0.0110   -0.0055   -0.0044 H   0  0  0  0  0  0  0  0  0  0  0  0
   -0.0454   -1.6989    0.5161 H   0  0  0  0  0  0  0  0  0  0  0  0
   -0.9074   -0.4685    1.4555 H   0  0  0  0  0  0  0  0  0  0  0  0
    1.2990    0.6047    2.0239 H   0  0  0  0  0  0  0  0  0  0  0  0
    2.1379   -0.6194    1.0950 H   0  0  0  0  0  0  0  0  0  0  0  0
    0.4156   -1.1576    3.5778 H   0  0  0  0  0  0  0  0  0  0  0  0
    1.2695   -2.4035    2.6321 H   0  0  0  0  0  0  0  0  0  0  0  0
    3.5833   -1.5443    5.2669 H   0  0  0  0  0  0  0  0  0  0  0  0
  1  2  1  0
  2  3  1  0
  3  4  1  0
  4  5  1  0
  5  6  2  0
  1  7  1  0
  1  8  1  0
  1  9  1  0
  2 10  1  0
  2 11  1  0
  3 12  1  0
  3 13  1  0
  5 14  1  0
M  END
>  <_TriposChargeType>  (568) 
USER_CHARGES

>  <solvdG>  (568) 
-2.48

>  <fdG>  (568) 
-3.7

>  <fname>  (568) 
mobley_8754702

>  <cname>  (568) 
 propyl formate

>  <dataset>  (568) 
FreeSolv

$$$$
pyridine-3-carbonitrile
     RDKit          3D

 12 12  0  0  0  0  0  0  0  0999 V2000
    1.6520   -0.6227    2.8997 C   0  0  0  0  0  0  0  0  0  0  0  0
    1.3879   -0.0684    1.6522 C   0  0  0  0  0  0  0  0  0  0  0  0
    0.2265   -0.4197    0.9733 C   0  0  0  0  0  0  0  0  0  0  0  0
   -0.6317   -1.3224    1.5803 C   0  0  0  0  0  0  0  0  0  0  0  0
   -0.4092   -1.8816    2.7908 N   0  0  0  0  0  0  0  0  0  0  0  0
    0.7299   -1.5161    3.4206 C   0  0  0  0  0  0  0  0  0  0  0  0
   -0.0721    0.1325   -0.3077 C   0  0  0  0  0  0  0  0  0  0  0  0
   -0.3158    0.5832   -1.3532 N   0  0  0  0  0  0  0  0  0  0  0  0
    2.5513   -0.3639    3.4470 H   0  0  0  0  0  0  0  0  0  0  0  0
    2.0964    0.6352    1.2220 H   0  0  0  0  0  0  0  0  0  0  0  0
   -1.5550   -1.6384    1.1027 H   0  0  0  0  0  0  0  0  0  0  0  0
    0.8895   -1.9762    4.3902 H   0  0  0  0  0  0  0  0  0  0  0  0
  1  6  2  0
  1  2  1  0
  2  3  2  0
  3  4  1  0
  4  5  2  0
  5  6  1  0
  3  7  1  0
  7  8  3  0
  1  9  1  0
  2 10  1  0
  4 11  1  0
  6 12  1  0
M  END
>  <_TriposChargeType>  (569) 
USER_CHARGES

>  <solvdG>  (569) 
-6.75

>  <fdG>  (569) 
-5.58

>  <fname>  (569) 
mobley_8764620

>  <cname>  (569) 
 pyridine-3-carbonitrile

>  <dataset>  (569) 
FreeSolv

$$$$
isoprene
     RDKit          3D

 13 12  0  0  0  0  0  0  0  0999 V2000
   -0.5216   -2.4669   -1.0269 C   0  0  0  0  0  0  0  0  0  0  0  0
   -0.6566   -2.6892    0.4542 C   0  0  0  0  0  0  0  0  0  0  0  0
   -0.9685   -3.9040    0.9358 C   0  0  0  0  0  0  0  0  0  0  0  0
   -0.4458   -1.5741    1.3661 C   0  0  0  0  0  0  0  0  0  0  0  0
   -0.1320   -0.3173    1.0280 C   0  0  0  0  0  0  0  0  0  0  0  0
   -1.4824   -2.1759   -1.4649 H   0  0  0  0  0  0  0  0  0  0  0  0
   -0.1890   -3.3714   -1.5487 H   0  0  0  0  0  0  0  0  0  0  0  0
    0.2146   -1.6834   -1.2364 H   0  0  0  0  0  0  0  0  0  0  0  0
   -1.0692   -4.0789    2.0023 H   0  0  0  0  0  0  0  0  0  0  0  0
   -1.1321   -4.7564    0.2835 H   0  0  0  0  0  0  0  0  0  0  0  0
   -0.5555   -1.7884    2.4280 H   0  0  0  0  0  0  0  0  0  0  0  0
    0.0010    0.4342    1.7998 H   0  0  0  0  0  0  0  0  0  0  0  0
   -0.0001    0.0000   -0.0000 H   0  0  0  0  0  0  0  0  0  0  0  0
  1  2  1  0
  2  3  2  3
  2  4  1  0
  4  5  2  3
  1  6  1  0
  1  7  1  0
  1  8  1  0
  3  9  1  0
  3 10  1  0
  4 11  1  0
  5 12  1  0
  5 13  1  0
M  END
>  <_TriposChargeType>  (570) 
USER_CHARGES

>  <solvdG>  (570) 
0.68

>  <fdG>  (570) 
1.82

>  <fname>  (570) 
mobley_8765203

>  <cname>  (570) 
 isoprene

>  <dataset>  (570) 
FreeSolv

$$$$
1-iodobutane
     RDKit          3D

 14 13  0  0  0  0  0  0  0  0999 V2000
   -0.0304    0.4285    1.0065 C   0  0  0  0  0  0  0  0  0  0  0  0
    0.7904   -0.4199    1.9648 C   0  0  0  0  0  0  0  0  0  0  0  0
    0.7704    0.1560    3.3812 C   0  0  0  0  0  0  0  0  0  0  0  0
    1.5976   -0.7030    4.3368 C   0  0  0  0  0  0  0  0  0  0  0  0
    1.5597    0.1148    6.3120 I   0  0  0  0  0  0  0  0  0  0  0  0
   -0.0105    0.0092   -0.0044 H   0  0  0  0  0  0  0  0  0  0  0  0
   -1.0732    0.4707    1.3360 H   0  0  0  0  0  0  0  0  0  0  0  0
    0.3535    1.4527    0.9618 H   0  0  0  0  0  0  0  0  0  0  0  0
    1.8227   -0.4767    1.6004 H   0  0  0  0  0  0  0  0  0  0  0  0
    0.3919   -1.4411    1.9722 H   0  0  0  0  0  0  0  0  0  0  0  0
    1.1625    1.1805    3.3627 H   0  0  0  0  0  0  0  0  0  0  0  0
   -0.2667    0.2177    3.7341 H   0  0  0  0  0  0  0  0  0  0  0  0
    2.6347   -0.7606    3.9881 H   0  0  0  0  0  0  0  0  0  0  0  0
    1.2039   -1.7253    4.3598 H   0  0  0  0  0  0  0  0  0  0  0  0
  1  2  1  0
  2  3  1  0
  3  4  1  0
  4  5  1  0
  1  6  1  0
  1  7  1  0
  1  8  1  0
  2  9  1  0
  2 10  1  0
  3 11  1  0
  3 12  1  0
  4 13  1  0
  4 14  1  0
M  END
>  <_TriposChargeType>  (571) 
USER_CHARGES

>  <solvdG>  (571) 
-0.25

>  <fdG>  (571) 
-0.22

>  <fname>  (571) 
mobley_8772587

>  <cname>  (571) 
 1-iodobutane

>  <dataset>  (571) 
FreeSolv

$$$$
(2S,5S)-2,5-dimethyltetrahydrofuran
     RDKit          3D

 19 19  0  0  0  0  0  0  0  0999 V2000
    2.3395   -0.5598   -0.6326 C   0  0  0  0  0  0  0  0  0  0  0  0
    1.1657    0.1344    0.0305 C   0  0  1  0  0  0  0  0  0  0  0  0
    1.5064    0.6530    0.9347 H   0  0  0  0  0  0  0  0  0  0  0  0
    0.4379    1.1032   -0.8866 C   0  0  0  0  0  0  0  0  0  0  0  0
   -0.9465    1.1034   -0.2868 C   0  0  0  0  0  0  0  0  0  0  0  0
   -1.1147   -0.3595    0.0889 C   0  0  1  0  0  0  0  0  0  0  0  0
   -1.4442   -0.9383   -0.7823 H   0  0  0  0  0  0  0  0  0  0  0  0
    0.1931   -0.8409    0.4448 O   0  0  0  0  0  0  0  0  0  0  0  0
   -2.0749   -0.5808    1.2417 C   0  0  0  0  0  0  0  0  0  0  0  0
    2.0156   -1.0825   -1.5375 H   0  0  0  0  0  0  0  0  0  0  0  0
    3.1086    0.1668   -0.9110 H   0  0  0  0  0  0  0  0  0  0  0  0
    2.7867   -1.2918    0.0466 H   0  0  0  0  0  0  0  0  0  0  0  0
    0.9015    2.0933   -0.9108 H   0  0  0  0  0  0  0  0  0  0  0  0
    0.3962    0.7187   -1.9130 H   0  0  0  0  0  0  0  0  0  0  0  0
   -0.9637    1.7436    0.6036 H   0  0  0  0  0  0  0  0  0  0  0  0
   -1.7191    1.4555   -0.9759 H   0  0  0  0  0  0  0  0  0  0  0  0
   -2.1573   -1.6463    1.4683 H   0  0  0  0  0  0  0  0  0  0  0  0
   -3.0674   -0.2013    0.9875 H   0  0  0  0  0  0  0  0  0  0  0  0
   -1.7218   -0.0611    2.1354 H   0  0  0  0  0  0  0  0  0  0  0  0
  1  2  1  0
  2  3  1  1
  2  8  1  0
  2  4  1  0
  4  5  1  0
  5  6  1  0
  6  7  1  6
  6  8  1  0
  6  9  1  0
  1 10  1  0
  1 11  1  0
  1 12  1  0
  4 13  1  0
  4 14  1  0
  5 15  1  0
  5 16  1  0
  9 17  1  0
  9 18  1  0
  9 19  1  0
M  END
>  <_TriposChargeType>  (572) 
USER_CHARGES

>  <solvdG>  (572) 
-2.92

>  <fdG>  (572) 
-1.79

>  <fname>  (572) 
mobley_8785107

>  <cname>  (572) 
 2,5-dimethyltetrahydrofuran

>  <dataset>  (572) 
FreeSolv

$$$$
2-iodophenol
     RDKit          3D

 13 13  0  0  0  0  0  0  0  0999 V2000
    1.8851   -1.0363   -0.1124 C   0  0  0  0  0  0  0  0  0  0  0  0
    2.9210   -1.6309    0.6081 C   0  0  0  0  0  0  0  0  0  0  0  0
    2.8783   -1.6520    2.0022 C   0  0  0  0  0  0  0  0  0  0  0  0
    1.7997   -1.0786    2.6757 C   0  0  0  0  0  0  0  0  0  0  0  0
    0.7638   -0.4841    1.9551 C   0  0  0  0  0  0  0  0  0  0  0  0
    0.8066   -0.4630    0.5610 C   0  0  0  0  0  0  0  0  0  0  0  0
   -0.3083    0.0866    2.5748 O   0  0  0  0  0  0  0  0  0  0  0  0
    1.7841   -1.1377    4.7644 I   0  0  0  0  0  0  0  0  0  0  0  0
    1.9182   -1.0204   -1.1980 H   0  0  0  0  0  0  0  0  0  0  0  0
    3.7604   -2.0777    0.0832 H   0  0  0  0  0  0  0  0  0  0  0  0
    3.6978   -2.1197    2.5418 H   0  0  0  0  0  0  0  0  0  0  0  0
    0.0036   -0.0010   -0.0075 H   0  0  0  0  0  0  0  0  0  0  0  0
   -0.2195    0.0062    3.5370 H   0  0  0  0  0  0  0  0  0  0  0  0
  1  6  2  0
  1  2  1  0
  2  3  2  0
  3  4  1  0
  4  5  2  0
  5  6  1  0
  5  7  1  0
  4  8  1  0
  1  9  1  0
  2 10  1  0
  3 11  1  0
  6 12  1  0
  7 13  1  0
M  END
>  <_TriposChargeType>  (573) 
USER_CHARGES

>  <solvdG>  (573) 
-6.2

>  <fdG>  (573) 
-3.22

>  <fname>  (573) 
mobley_8789465

>  <cname>  (573) 
 2-iodophenol

>  <dataset>  (573) 
FreeSolv

$$$$
3,3,3-trimethoxypropanenitrile
     RDKit          3D

 21 20  0  0  0  0  0  0  0  0999 V2000
   -0.5707    0.9482    2.0210 C   0  0  0  0  0  0  0  0  0  0  0  0
   -0.9294    0.5640    0.7015 O   0  0  0  0  0  0  0  0  0  0  0  0
    0.1206   -0.0252   -0.0936 C   0  0  0  0  0  0  0  0  0  0  0  0
    0.6614   -1.3150    0.5754 C   0  0  0  0  0  0  0  0  0  0  0  0
    1.7374   -1.9488   -0.2066 C   0  0  0  0  0  0  0  0  0  0  0  0
    2.5843   -2.4490   -0.8221 N   0  0  0  0  0  0  0  0  0  0  0  0
   -0.3759   -0.3375   -1.4153 O   0  0  0  0  0  0  0  0  0  0  0  0
   -1.6928   -0.8697   -1.4649 C   0  0  0  0  0  0  0  0  0  0  0  0
    1.2561    0.8654   -0.2056 O   0  0  0  0  0  0  0  0  0  0  0  0
    0.9477    2.1135   -0.8137 C   0  0  0  0  0  0  0  0  0  0  0  0
   -1.4395    1.3790    2.5247 H   0  0  0  0  0  0  0  0  0  0  0  0
    0.2403    1.6797    1.9808 H   0  0  0  0  0  0  0  0  0  0  0  0
   -0.2352    0.0650    2.5696 H   0  0  0  0  0  0  0  0  0  0  0  0
    1.0622   -1.0831    1.5696 H   0  0  0  0  0  0  0  0  0  0  0  0
   -0.1505   -2.0343    0.7313 H   0  0  0  0  0  0  0  0  0  0  0  0
   -1.9622   -1.0668   -2.5035 H   0  0  0  0  0  0  0  0  0  0  0  0
   -2.3871   -0.1537   -1.0223 H   0  0  0  0  0  0  0  0  0  0  0  0
   -1.7155   -1.8011   -0.8976 H   0  0  0  0  0  0  0  0  0  0  0  0
    1.8511    2.7227   -0.8603 H   0  0  0  0  0  0  0  0  0  0  0  0
    0.1788    2.6182   -0.2272 H   0  0  0  0  0  0  0  0  0  0  0  0
    0.5776    1.9282   -1.8226 H   0  0  0  0  0  0  0  0  0  0  0  0
  1  2  1  0
  2  3  1  0
  3  4  1  0
  4  5  1  0
  5  6  3  0
  3  7  1  0
  7  8  1  0
  3  9  1  0
  9 10  1  0
  1 11  1  0
  1 12  1  0
  1 13  1  0
  4 14  1  0
  4 15  1  0
  8 16  1  0
  8 17  1  0
  8 18  1  0
 10 19  1  0
 10 20  1  0
 10 21  1  0
M  END
>  <_TriposChargeType>  (574) 
USER_CHARGES

>  <solvdG>  (574) 
-6.4

>  <fdG>  (574) 
-5.86

>  <fname>  (574) 
mobley_8789864

>  <cname>  (574) 
 3,3,3-trimethoxypropanenitrile

>  <dataset>  (574) 
FreeSolv

$$$$
pyridine-4-carbaldehyde
     RDKit          3D

 13 13  0  0  0  0  0  0  0  0999 V2000
    0.2265   -0.4197    0.9733 C   0  0  0  0  0  0  0  0  0  0  0  0
   -0.6317   -1.3224    1.5803 C   0  0  0  0  0  0  0  0  0  0  0  0
   -0.4092   -1.8816    2.7908 N   0  0  0  0  0  0  0  0  0  0  0  0
    0.7299   -1.5161    3.4206 C   0  0  0  0  0  0  0  0  0  0  0  0
    1.6520   -0.6227    2.8997 C   0  0  0  0  0  0  0  0  0  0  0  0
    1.3879   -0.0684    1.6522 C   0  0  0  0  0  0  0  0  0  0  0  0
    2.3223    0.8750    1.0600 C   0  0  0  0  0  0  0  0  0  0  0  0
    2.1427    1.3998   -0.0427 O   0  0  0  0  0  0  0  0  0  0  0  0
   -0.0108   -0.0052   -0.0008 H   0  0  0  0  0  0  0  0  0  0  0  0
   -1.5513   -1.6283    1.0929 H   0  0  0  0  0  0  0  0  0  0  0  0
    0.8894   -1.9765    4.3899 H   0  0  0  0  0  0  0  0  0  0  0  0
    2.5483   -0.3695    3.4560 H   0  0  0  0  0  0  0  0  0  0  0  0
    3.2368    1.1235    1.6419 H   0  0  0  0  0  0  0  0  0  0  0  0
  1  6  2  0
  1  2  1  0
  2  3  2  0
  3  4  1  0
  4  5  2  0
  5  6  1  0
  6  7  1  0
  7  8  2  0
  1  9  1  0
  2 10  1  0
  4 11  1  0
  5 12  1  0
  7 13  1  0
M  END
>  <_TriposChargeType>  (575) 
USER_CHARGES

>  <solvdG>  (575) 
-7.0

>  <fdG>  (575) 
-7.34

>  <fname>  (575) 
mobley_8798016

>  <cname>  (575) 
 pyridine-4-carbaldehyde

>  <dataset>  (575) 
FreeSolv

$$$$
butylbenzene
     RDKit          3D

 24 24  0  0  0  0  0  0  0  0999 V2000
   -0.0241    1.0480    0.3161 C   0  0  0  0  0  0  0  0  0  0  0  0
   -0.5552    1.9380   -0.7962 C   0  0  0  0  0  0  0  0  0  0  0  0
    0.3242    1.8603   -2.0442 C   0  0  0  0  0  0  0  0  0  0  0  0
   -0.2155    2.7586   -3.1608 C   0  0  0  0  0  0  0  0  0  0  0  0
    0.6480    2.6862   -4.3949 C   0  0  0  0  0  0  0  0  0  0  0  0
    1.7159    3.5697   -4.5515 C   0  0  0  0  0  0  0  0  0  0  0  0
    2.5146    3.5030   -5.6931 C   0  0  0  0  0  0  0  0  0  0  0  0
    2.2454    2.5529   -6.6782 C   0  0  0  0  0  0  0  0  0  0  0  0
    1.1773    1.6694   -6.5216 C   0  0  0  0  0  0  0  0  0  0  0  0
    0.3786    1.7361   -5.3800 C   0  0  0  0  0  0  0  0  0  0  0  0
   -0.6595    1.1099    1.2053 H   0  0  0  0  0  0  0  0  0  0  0  0
    0.9928    1.3384    0.5991 H   0  0  0  0  0  0  0  0  0  0  0  0
   -0.0004    0.0041   -0.0122 H   0  0  0  0  0  0  0  0  0  0  0  0
   -0.6014    2.9728   -0.4372 H   0  0  0  0  0  0  0  0  0  0  0  0
   -1.5790    1.6333   -1.0423 H   0  0  0  0  0  0  0  0  0  0  0  0
    1.3494    2.1577   -1.7894 H   0  0  0  0  0  0  0  0  0  0  0  0
    0.3748    0.8212   -2.3934 H   0  0  0  0  0  0  0  0  0  0  0  0
   -0.2719    3.7966   -2.8084 H   0  0  0  0  0  0  0  0  0  0  0  0
   -1.2435    2.4649   -3.4098 H   0  0  0  0  0  0  0  0  0  0  0  0
    1.9326    4.3134   -3.7892 H   0  0  0  0  0  0  0  0  0  0  0  0
    3.3463    4.1909   -5.8149 H   0  0  0  0  0  0  0  0  0  0  0  0
    2.8672    2.5007   -7.5672 H   0  0  0  0  0  0  0  0  0  0  0  0
    0.9674    0.9300   -7.2888 H   0  0  0  0  0  0  0  0  0  0  0  0
   -0.4510    1.0432   -5.2668 H   0  0  0  0  0  0  0  0  0  0  0  0
  1  2  1  0
  2  3  1  0
  3  4  1  0
  4  5  1  0
  5 10  2  0
  5  6  1  0
  6  7  2  0
  7  8  1  0
  8  9  2  0
  9 10  1  0
  1 11  1  0
  1 12  1  0
  1 13  1  0
  2 14  1  0
  2 15  1  0
  3 16  1  0
  3 17  1  0
  4 18  1  0
  4 19  1  0
  6 20  1  0
  7 21  1  0
  8 22  1  0
  9 23  1  0
 10 24  1  0
M  END
>  <_TriposChargeType>  (576) 
USER_CHARGES

>  <solvdG>  (576) 
-0.4

>  <fdG>  (576) 
-0.23

>  <fname>  (576) 
mobley_8809190

>  <cname>  (576) 
 butylbenzene

>  <dataset>  (576) 
FreeSolv

$$$$
trifluoromethylbenzene
     RDKit          3D

 15 15  0  0  0  0  0  0  0  0999 V2000
    1.8851   -1.0363   -0.1124 C   0  0  0  0  0  0  0  0  0  0  0  0
    2.9210   -1.6309    0.6081 C   0  0  0  0  0  0  0  0  0  0  0  0
    2.8783   -1.6520    2.0022 C   0  0  0  0  0  0  0  0  0  0  0  0
    1.7997   -1.0786    2.6757 C   0  0  0  0  0  0  0  0  0  0  0  0
    0.7638   -0.4841    1.9551 C   0  0  0  0  0  0  0  0  0  0  0  0
    0.8066   -0.4630    0.5610 C   0  0  0  0  0  0  0  0  0  0  0  0
    1.7548   -1.1014    4.1663 C   0  0  0  0  0  0  0  0  0  0  0  0
    2.8336   -1.7145    4.7372 F   0  0  0  0  0  0  0  0  0  0  0  0
    1.7117    0.1416    4.7310 F   0  0  0  0  0  0  0  0  0  0  0  0
    0.6614   -1.7607    4.6486 F   0  0  0  0  0  0  0  0  0  0  0  0
    1.9176   -1.0210   -1.1980 H   0  0  0  0  0  0  0  0  0  0  0  0
    3.7604   -2.0783    0.0841 H   0  0  0  0  0  0  0  0  0  0  0  0
    3.6899   -2.1173    2.5553 H   0  0  0  0  0  0  0  0  0  0  0  0
   -0.0804   -0.0348    2.4713 H   0  0  0  0  0  0  0  0  0  0  0  0
   -0.0006   -0.0010    0.0001 H   0  0  0  0  0  0  0  0  0  0  0  0
  1  6  2  0
  1  2  1  0
  2  3  2  0
  3  4  1  0
  4  5  2  0
  5  6  1  0
  4  7  1  0
  7  8  1  0
  7  9  1  0
  7 10  1  0
  1 11  1  0
  2 12  1  0
  3 13  1  0
  5 14  1  0
  6 15  1  0
M  END
>  <_TriposChargeType>  (577) 
USER_CHARGES

>  <solvdG>  (577) 
-0.25

>  <fdG>  (577) 
-0.57

>  <fname>  (577) 
mobley_8809274

>  <cname>  (577) 
 trifluoromethylbenzene

>  <dataset>  (577) 
FreeSolv

$$$$
1,2,3-trichloro-5-(2,5-dichlorophenyl)benzene
     RDKit          3D

 22 23  0  0  0  0  0  0  0  0999 V2000
    1.8851   -1.0363   -0.1124 C   0  0  0  0  0  0  0  0  0  0  0  0
    2.9210   -1.6309    0.6081 C   0  0  0  0  0  0  0  0  0  0  0  0
    2.8783   -1.6520    2.0022 C   0  0  0  0  0  0  0  0  0  0  0  0
    1.7997   -1.0786    2.6757 C   0  0  0  0  0  0  0  0  0  0  0  0
    0.7638   -0.4841    1.9551 C   0  0  0  0  0  0  0  0  0  0  0  0
    0.8066   -0.4630    0.5610 C   0  0  0  0  0  0  0  0  0  0  0  0
   -0.4709    0.2702   -0.3291 Cl  0  0  0  0  0  0  0  0  0  0  0  0
    1.7152   -1.0784    4.1241 C   0  0  0  0  0  0  0  0  0  0  0  0
    1.0906   -2.1352    4.7865 C   0  0  0  0  0  0  0  0  0  0  0  0
    1.0088   -2.1346    6.1790 C   0  0  0  0  0  0  0  0  0  0  0  0
    1.5515   -1.0772    6.9090 C   0  0  0  0  0  0  0  0  0  0  0  0
    2.1760   -0.0203    6.2466 C   0  0  0  0  0  0  0  0  0  0  0  0
    2.2578   -0.0210    4.8541 C   0  0  0  0  0  0  0  0  0  0  0  0
    2.8717    1.3248    7.0840 Cl  0  0  0  0  0  0  0  0  0  0  0  0
    1.4490   -1.0756    8.6439 Cl  0  0  0  0  0  0  0  0  0  0  0  0
    0.2195   -3.4793    6.9304 Cl  0  0  0  0  0  0  0  0  0  0  0  0
    4.1897   -2.4029    2.8437 Cl  0  0  0  0  0  0  0  0  0  0  0  0
    1.9317   -1.0271   -1.1984 H   0  0  0  0  0  0  0  0  0  0  0  0
    3.7540   -2.0730    0.0673 H   0  0  0  0  0  0  0  0  0  0  0  0
   -0.0794   -0.0357    2.4774 H   0  0  0  0  0  0  0  0  0  0  0  0
    0.6676   -2.9592    4.2143 H   0  0  0  0  0  0  0  0  0  0  0  0
    2.7442    0.8027    4.3344 H   0  0  0  0  0  0  0  0  0  0  0  0
  1  6  2  0
  1  2  1  0
  2  3  2  0
  3  4  1  0
  4  5  2  0
  5  6  1  0
  6  7  1  0
  4  8  1  0
  8 13  1  0
  8  9  2  0
  9 10  1  0
 10 11  2  0
 11 12  1  0
 12 13  2  0
 12 14  1  0
 11 15  1  0
 10 16  1  0
  3 17  1  0
  1 18  1  0
  2 19  1  0
  5 20  1  0
  9 21  1  0
 13 22  1  0
M  END
>  <_TriposChargeType>  (578) 
USER_CHARGES

>  <solvdG>  (578) 
-3.61

>  <fdG>  (578) 
-0.92

>  <fname>  (578) 
mobley_8823527

>  <cname>  (578) 
 1,2,3-trichloro-5-(2,5-dichlorophenyl)benzene

>  <dataset>  (578) 
FreeSolv

$$$$
1,2,4-trichlorodibenzo-p-dioxin
     RDKit          3D

 22 24  0  0  0  0  0  0  0  0999 V2000
   -1.8584    0.7400    0.8000 C   0  0  0  0  0  0  0  0  0  0  0  0
   -1.0039   -0.2568    0.3257 C   0  0  0  0  0  0  0  0  0  0  0  0
   -1.4367   -1.5819    0.2693 C   0  0  0  0  0  0  0  0  0  0  0  0
   -2.7266   -1.9051    0.6889 C   0  0  0  0  0  0  0  0  0  0  0  0
   -3.5799   -0.9097    1.1626 C   0  0  0  0  0  0  0  0  0  0  0  0
   -3.1487    0.4152    1.2196 C   0  0  0  0  0  0  0  0  0  0  0  0
   -4.8561   -1.1828    1.5855 O   0  0  0  0  0  0  0  0  0  0  0  0
   -5.2389   -2.4982    1.5123 C   0  0  0  0  0  0  0  0  0  0  0  0
   -6.5287   -2.8214    1.9320 C   0  0  0  0  0  0  0  0  0  0  0  0
   -6.9616   -4.1465    1.8755 C   0  0  0  0  0  0  0  0  0  0  0  0
   -6.1071   -5.1433    1.4010 C   0  0  0  0  0  0  0  0  0  0  0  0
   -4.8168   -4.8184    0.9815 C   0  0  0  0  0  0  0  0  0  0  0  0
   -4.3856   -3.4936    1.0385 C   0  0  0  0  0  0  0  0  0  0  0  0
   -3.1093   -3.2205    0.6157 O   0  0  0  0  0  0  0  0  0  0  0  0
   -3.7385   -6.0421    0.3886 Cl  0  0  0  0  0  0  0  0  0  0  0  0
   -6.7138   -6.7631    1.3602 Cl  0  0  0  0  0  0  0  0  0  0  0  0
   -7.6135   -1.6166    2.5245 Cl  0  0  0  0  0  0  0  0  0  0  0  0
   -1.5178    1.7705    0.8423 H   0  0  0  0  0  0  0  0  0  0  0  0
    0.0000   -0.0002   -0.0001 H   0  0  0  0  0  0  0  0  0  0  0  0
   -0.7658   -2.3519   -0.1011 H   0  0  0  0  0  0  0  0  0  0  0  0
   -3.8084    1.1959    1.5878 H   0  0  0  0  0  0  0  0  0  0  0  0
   -7.9677   -4.4018    2.2026 H   0  0  0  0  0  0  0  0  0  0  0  0
  1  6  2  0
  1  2  1  0
  2  3  2  0
  3  4  1  0
  4 14  1  0
  4  5  2  0
  5  6  1  0
  5  7  1  0
  7  8  1  0
  8 13  2  0
  8  9  1  0
  9 10  2  0
 10 11  1  0
 11 12  2  0
 12 13  1  0
 13 14  1  0
 12 15  1  0
 11 16  1  0
  9 17  1  0
  1 18  1  0
  2 19  1  0
  3 20  1  0
  6 21  1  0
 10 22  1  0
M  END
>  <_TriposChargeType>  (579) 
USER_CHARGES

>  <solvdG>  (579) 
-4.05

>  <fdG>  (579) 
-3.16

>  <fname>  (579) 
mobley_8827942

>  <cname>  (579) 
 1,2,4-trichlorodibenzo-p-dioxin

>  <dataset>  (579) 
FreeSolv

$$$$
2,4-dimethylpyridine
     RDKit          3D

 17 17  0  0  0  0  0  0  0  0999 V2000
    2.3462    0.8984    1.0438 C   0  0  0  0  0  0  0  0  0  0  0  0
    1.3879   -0.0684    1.6522 C   0  0  0  0  0  0  0  0  0  0  0  0
    0.2265   -0.4197    0.9733 C   0  0  0  0  0  0  0  0  0  0  0  0
   -0.6317   -1.3224    1.5803 C   0  0  0  0  0  0  0  0  0  0  0  0
   -0.4092   -1.8816    2.7908 N   0  0  0  0  0  0  0  0  0  0  0  0
    0.7299   -1.5161    3.4206 C   0  0  0  0  0  0  0  0  0  0  0  0
    1.6520   -0.6227    2.8997 C   0  0  0  0  0  0  0  0  0  0  0  0
    0.9808   -2.1305    4.7573 C   0  0  0  0  0  0  0  0  0  0  0  0
    3.0854    0.3633    0.4400 H   0  0  0  0  0  0  0  0  0  0  0  0
    1.8229    1.6189    0.4065 H   0  0  0  0  0  0  0  0  0  0  0  0
    2.8685    1.4705    1.8179 H   0  0  0  0  0  0  0  0  0  0  0  0
   -0.0084   -0.0046   -0.0009 H   0  0  0  0  0  0  0  0  0  0  0  0
   -1.5512   -1.6288    1.0924 H   0  0  0  0  0  0  0  0  0  0  0  0
    2.5523   -0.3625    3.4473 H   0  0  0  0  0  0  0  0  0  0  0  0
    1.5439   -3.0650    4.6474 H   0  0  0  0  0  0  0  0  0  0  0  0
    1.5519   -1.4534    5.4051 H   0  0  0  0  0  0  0  0  0  0  0  0
    0.0394   -2.3496    5.2771 H   0  0  0  0  0  0  0  0  0  0  0  0
  1  2  1  0
  2  7  2  0
  2  3  1  0
  3  4  2  0
  4  5  1  0
  5  6  2  0
  6  7  1  0
  6  8  1  0
  1  9  1  0
  1 10  1  0
  1 11  1  0
  3 12  1  0
  4 13  1  0
  7 14  1  0
  8 15  1  0
  8 16  1  0
  8 17  1  0
M  END
>  <_TriposChargeType>  (580) 
USER_CHARGES

>  <solvdG>  (580) 
-4.86

>  <fdG>  (580) 
-3.28

>  <fname>  (580) 
mobley_8861672

>  <cname>  (580) 
 2,4-dimethylpyridine

>  <dataset>  (580) 
FreeSolv

$$$$
tetrahydrofuran
     RDKit          3D

 13 13  0  0  0  0  0  0  0  0999 V2000
   -0.5364   -1.0227   -0.5053 C   0  0  0  0  0  0  0  0  0  0  0  0
   -0.5413    0.3724   -1.0757 C   0  0  0  0  0  0  0  0  0  0  0  0
    0.6038    1.0191   -0.3271 C   0  0  0  0  0  0  0  0  0  0  0  0
    0.6574    0.3967    0.9644 O   0  0  0  0  0  0  0  0  0  0  0  0
   -0.1835   -0.7655    0.9437 C   0  0  0  0  0  0  0  0  0  0  0  0
    0.2527   -1.6156   -0.9829 H   0  0  0  0  0  0  0  0  0  0  0  0
   -1.4848   -1.5521   -0.6270 H   0  0  0  0  0  0  0  0  0  0  0  0
   -0.4155    0.4056   -2.1609 H   0  0  0  0  0  0  0  0  0  0  0  0
   -1.4836    0.8729   -0.8229 H   0  0  0  0  0  0  0  0  0  0  0  0
    1.5599    0.8326   -0.8277 H   0  0  0  0  0  0  0  0  0  0  0  0
    0.4748    2.0988   -0.2114 H   0  0  0  0  0  0  0  0  0  0  0  0
    0.3389   -1.6079    1.4054 H   0  0  0  0  0  0  0  0  0  0  0  0
   -1.0772   -0.5410    1.5357 H   0  0  0  0  0  0  0  0  0  0  0  0
  1  5  1  0
  1  2  1  0
  2  3  1  0
  3  4  1  0
  4  5  1  0
  1  6  1  0
  1  7  1  0
  2  8  1  0
  2  9  1  0
  3 10  1  0
  3 11  1  0
  5 12  1  0
  5 13  1  0
M  END
>  <_TriposChargeType>  (581) 
USER_CHARGES

>  <solvdG>  (581) 
-3.47

>  <fdG>  (581) 
-2.2

>  <fname>  (581) 
mobley_8882696

>  <cname>  (581) 
 tetrahydrofuran

>  <dataset>  (581) 
FreeSolv

$$$$
2-methylbenzaldehyde
     RDKit          3D

 17 17  0  0  0  0  0  0  0  0999 V2000
    1.9570   -1.0272   -1.6044 C   0  0  0  0  0  0  0  0  0  0  0  0
    1.8851   -1.0363   -0.1124 C   0  0  0  0  0  0  0  0  0  0  0  0
    2.9210   -1.6309    0.6081 C   0  0  0  0  0  0  0  0  0  0  0  0
    2.8783   -1.6520    2.0022 C   0  0  0  0  0  0  0  0  0  0  0  0
    1.7997   -1.0786    2.6757 C   0  0  0  0  0  0  0  0  0  0  0  0
    0.7638   -0.4841    1.9551 C   0  0  0  0  0  0  0  0  0  0  0  0
    0.8066   -0.4630    0.5610 C   0  0  0  0  0  0  0  0  0  0  0  0
   -0.2877    0.1650   -0.1669 C   0  0  0  0  0  0  0  0  0  0  0  0
   -1.4447    0.1989    0.2578 O   0  0  0  0  0  0  0  0  0  0  0  0
    2.4717   -0.1251   -1.9489 H   0  0  0  0  0  0  0  0  0  0  0  0
    2.4956   -1.9056   -1.9752 H   0  0  0  0  0  0  0  0  0  0  0  0
    0.9544   -1.0527   -2.0441 H   0  0  0  0  0  0  0  0  0  0  0  0
    3.7661   -2.0799    0.0932 H   0  0  0  0  0  0  0  0  0  0  0  0
    3.6843   -2.1151    2.5638 H   0  0  0  0  0  0  0  0  0  0  0  0
    1.7664   -1.0953    3.7613 H   0  0  0  0  0  0  0  0  0  0  0  0
   -0.0709   -0.0405    2.4920 H   0  0  0  0  0  0  0  0  0  0  0  0
   -0.0475    0.6281   -1.1475 H   0  0  0  0  0  0  0  0  0  0  0  0
  1  2  1  0
  2  7  2  0
  2  3  1  0
  3  4  2  0
  4  5  1  0
  5  6  2  0
  6  7  1  0
  7  8  1  0
  8  9  2  0
  1 10  1  0
  1 11  1  0
  1 12  1  0
  3 13  1  0
  4 14  1  0
  5 15  1  0
  6 16  1  0
  8 17  1  0
M  END
>  <_TriposChargeType>  (582) 
USER_CHARGES

>  <solvdG>  (582) 
-3.93

>  <fdG>  (582) 
-4.55

>  <fname>  (582) 
mobley_8883511

>  <cname>  (582) 
 2-methylbenzaldehyde

>  <dataset>  (582) 
FreeSolv

$$$$
cyclopentene
     RDKit          3D

 13 13  0  0  0  0  0  0  0  0999 V2000
    1.0233    0.7436   -0.0606 C   0  0  0  0  0  0  0  0  0  0  0  0
    1.0104   -0.7586    0.2211 C   0  0  0  0  0  0  0  0  0  0  0  0
   -0.4084   -1.1338   -0.0438 C   0  0  0  0  0  0  0  0  0  0  0  0
   -1.1954   -0.0593   -0.1476 C   0  0  0  0  0  0  0  0  0  0  0  0
   -0.4299    1.2081    0.0310 C   0  0  0  0  0  0  0  0  0  0  0  0
    1.4068    0.9267   -1.0730 H   0  0  0  0  0  0  0  0  0  0  0  0
    1.6737    1.2870    0.6326 H   0  0  0  0  0  0  0  0  0  0  0  0
    1.7020   -1.2903   -0.4388 H   0  0  0  0  0  0  0  0  0  0  0  0
    1.2732   -0.9761    1.2614 H   0  0  0  0  0  0  0  0  0  0  0  0
   -0.7591   -2.1535   -0.1101 H   0  0  0  0  0  0  0  0  0  0  0  0
   -2.2625   -0.0999   -0.3107 H   0  0  0  0  0  0  0  0  0  0  0  0
   -0.6617    1.9372   -0.7507 H   0  0  0  0  0  0  0  0  0  0  0  0
   -0.6510    1.6510    1.0075 H   0  0  0  0  0  0  0  0  0  0  0  0
  1  5  1  0
  1  2  1  0
  2  3  1  0
  3  4  2  0
  4  5  1  0
  1  6  1  0
  1  7  1  0
  2  8  1  0
  2  9  1  0
  3 10  1  0
  4 11  1  0
  5 12  1  0
  5 13  1  0
M  END
>  <_TriposChargeType>  (583) 
USER_CHARGES

>  <solvdG>  (583) 
0.56

>  <fdG>  (583) 
1.23

>  <fname>  (583) 
mobley_8885088

>  <cname>  (583) 
 cyclopentene

>  <dataset>  (583) 
FreeSolv

$$$$
cyclopentanol
     RDKit          3D

 16 16  0  0  0  0  0  0  0  0999 V2000
   -0.5073   -1.0667    1.8391 C   0  0  0  0  0  0  0  0  0  0  0  0
    0.3046   -0.0385    1.0510 C   0  0  0  0  0  0  0  0  0  0  0  0
    1.7686   -0.4549    1.1854 C   0  0  0  0  0  0  0  0  0  0  0  0
    1.8081   -1.3103    2.4423 C   0  0  0  0  0  0  0  0  0  0  0  0
    0.4994   -2.0828    2.3727 C   0  0  0  0  0  0  0  0  0  0  0  0
    1.8253   -0.4673    3.5876 O   0  0  0  0  0  0  0  0  0  0  0  0
   -1.2699   -1.5476    1.2182 H   0  0  0  0  0  0  0  0  0  0  0  0
   -1.0253   -0.5720    2.6691 H   0  0  0  0  0  0  0  0  0  0  0  0
    0.0008    0.0002   -0.0001 H   0  0  0  0  0  0  0  0  0  0  0  0
    0.1486    0.9609    1.4731 H   0  0  0  0  0  0  0  0  0  0  0  0
    2.0582   -1.0539    0.3140 H   0  0  0  0  0  0  0  0  0  0  0  0
    2.4240    0.4196    1.2421 H   0  0  0  0  0  0  0  0  0  0  0  0
    2.6859   -1.9620    2.4746 H   0  0  0  0  0  0  0  0  0  0  0  0
    0.5906   -2.9149    1.6647 H   0  0  0  0  0  0  0  0  0  0  0  0
    0.1834   -2.4804    3.3419 H   0  0  0  0  0  0  0  0  0  0  0  0
    1.8503   -1.0504    4.3632 H   0  0  0  0  0  0  0  0  0  0  0  0
  1  5  1  0
  1  2  1  0
  2  3  1  0
  3  4  1  0
  4  5  1  0
  4  6  1  0
  1  7  1  0
  1  8  1  0
  2  9  1  0
  2 10  1  0
  3 11  1  0
  3 12  1  0
  4 13  1  0
  5 14  1  0
  5 15  1  0
  6 16  1  0
M  END
>  <_TriposChargeType>  (584) 
USER_CHARGES

>  <solvdG>  (584) 
-5.49

>  <fdG>  (584) 
-4.29

>  <fname>  (584) 
mobley_8899867

>  <cname>  (584) 
 cyclopentanol

>  <dataset>  (584) 
FreeSolv

$$$$
diethyl (2R)-2-dimethoxyphosphinothioylsulfanylbutanedioate
     RDKit          3D

 38 37  0  0  0  0  0  0  0  0999 V2000
   -2.5176   -5.5056   -1.2596 C   0  0  0  0  0  0  0  0  0  0  0  0
   -3.2090   -4.3498   -0.5684 C   0  0  0  0  0  0  0  0  0  0  0  0
   -3.2468   -3.2297   -1.4584 O   0  0  0  0  0  0  0  0  0  0  0  0
   -3.8468   -2.1059   -0.9644 C   0  0  0  0  0  0  0  0  0  0  0  0
   -4.3400   -1.9877    0.1487 O   0  0  0  0  0  0  0  0  0  0  0  0
   -3.7773   -1.0124   -2.0101 C   0  0  0  0  0  0  0  0  0  0  0  0
   -4.4781   -1.3786   -3.3208 C   0  0  2  0  0  0  0  0  0  0  0  0
   -4.0360   -2.2705   -3.7792 H   0  0  0  0  0  0  0  0  0  0  0  0
   -4.3597   -0.2317   -4.3073 C   0  0  0  0  0  0  0  0  0  0  0  0
   -5.1528    0.6931   -4.4251 O   0  0  0  0  0  0  0  0  0  0  0  0
   -3.2390   -0.4163   -5.0701 O   0  0  0  0  0  0  0  0  0  0  0  0
   -3.0081    0.5731   -6.0782 C   0  0  0  0  0  0  0  0  0  0  0  0
   -1.7412    0.2185   -6.8197 C   0  0  0  0  0  0  0  0  0  0  0  0
   -6.2435   -1.7603   -3.0514 S   0  0  0  0  0  0  0  0  0  0  0  0
   -6.8221   -2.8859   -4.7545 P   0  0  0  0  0  5  0  0  0  0  0  0
   -8.6803   -3.5065   -4.8629 S   0  0  0  0  0  0  0  0  0  0  0  0
   -6.3762   -2.0312   -6.0755 O   0  0  0  0  0  0  0  0  0  0  0  0
   -6.2348   -2.6742   -7.3313 C   0  0  0  0  0  0  0  0  0  0  0  0
   -5.7550   -4.1151   -4.9100 O   0  0  0  0  0  0  0  0  0  0  0  0
   -5.6017   -5.0674   -3.8705 C   0  0  0  0  0  0  0  0  0  0  0  0
   -2.4715   -6.3805   -0.6052 H   0  0  0  0  0  0  0  0  0  0  0  0
   -3.0473   -5.7787   -2.1782 H   0  0  0  0  0  0  0  0  0  0  0  0
   -1.4990   -5.2279   -1.5502 H   0  0  0  0  0  0  0  0  0  0  0  0
   -2.6649   -4.0628    0.3364 H   0  0  0  0  0  0  0  0  0  0  0  0
   -4.2342   -4.6210   -0.2993 H   0  0  0  0  0  0  0  0  0  0  0  0
   -2.7265   -0.7559   -2.1948 H   0  0  0  0  0  0  0  0  0  0  0  0
   -4.2551   -0.1298   -1.5662 H   0  0  0  0  0  0  0  0  0  0  0  0
   -3.8660    0.5807   -6.7512 H   0  0  0  0  0  0  0  0  0  0  0  0
   -2.9167    1.5433   -5.5891 H   0  0  0  0  0  0  0  0  0  0  0  0
   -1.5348    0.9566   -7.5997 H   0  0  0  0  0  0  0  0  0  0  0  0
   -0.8873    0.1788   -6.1355 H   0  0  0  0  0  0  0  0  0  0  0  0
   -1.8245   -0.7705   -7.2824 H   0  0  0  0  0  0  0  0  0  0  0  0
   -5.9333   -1.9412   -8.0825 H   0  0  0  0  0  0  0  0  0  0  0  0
   -7.1849   -3.1334   -7.6131 H   0  0  0  0  0  0  0  0  0  0  0  0
   -5.4676   -3.4467   -7.2484 H   0  0  0  0  0  0  0  0  0  0  0  0
   -4.8486   -5.8031   -4.1606 H   0  0  0  0  0  0  0  0  0  0  0  0
   -6.5586   -5.5604   -3.6859 H   0  0  0  0  0  0  0  0  0  0  0  0
   -5.2768   -4.5520   -2.9645 H   0  0  0  0  0  0  0  0  0  0  0  0
  1  2  1  0
  2  3  1  0
  3  4  1  0
  4  5  2  0
  4  6  1  0
  6  7  1  0
  7  8  1  6
  7  9  1  0
  9 10  2  0
  9 11  1  0
 11 12  1  0
 12 13  1  0
  7 14  1  0
 14 15  1  0
 15 16  2  0
 15 17  1  0
 17 18  1  0
 15 19  1  0
 19 20  1  0
  1 21  1  0
  1 22  1  0
  1 23  1  0
  2 24  1  0
  2 25  1  0
  6 26  1  0
  6 27  1  0
 12 28  1  0
 12 29  1  0
 13 30  1  0
 13 31  1  0
 13 32  1  0
 18 33  1  0
 18 34  1  0
 18 35  1  0
 20 36  1  0
 20 37  1  0
 20 38  1  0
M  END
>  <_TriposChargeType>  (585) 
USER_CHARGES

>  <solvdG>  (585) 
-8.15

>  <fdG>  (585) 
-11.19

>  <fname>  (585) 
mobley_8916409

>  <cname>  (585) 
 diethyl (2R)-2-dimethoxyphosphinothioylsulfanylbutanedioate

>  <dataset>  (585) 
FreeSolv

$$$$
2-methylpyrazine
     RDKit          3D

 13 13  0  0  0  0  0  0  0  0999 V2000
    0.0878    0.3939   -0.0546 C   0  0  0  0  0  0  0  0  0  0  0  0
   -0.3211   -1.0181    0.1824 C   0  0  0  0  0  0  0  0  0  0  0  0
   -1.5571   -1.3073    0.7174 C   0  0  0  0  0  0  0  0  0  0  0  0
   -1.9573   -2.5739    0.9453 N   0  0  0  0  0  0  0  0  0  0  0  0
   -1.0772   -3.5410    0.6188 C   0  0  0  0  0  0  0  0  0  0  0  0
    0.1585   -3.2519    0.0831 C   0  0  0  0  0  0  0  0  0  0  0  0
    0.5588   -1.9852   -0.1444 N   0  0  0  0  0  0  0  0  0  0  0  0
   -0.2085    0.7056   -1.0608 H   0  0  0  0  0  0  0  0  0  0  0  0
   -0.3785    1.0638    0.6754 H   0  0  0  0  0  0  0  0  0  0  0  0
    1.1722    0.5090    0.0469 H   0  0  0  0  0  0  0  0  0  0  0  0
   -2.2694   -0.5353    0.9841 H   0  0  0  0  0  0  0  0  0  0  0  0
   -1.3988   -4.5586    0.8024 H   0  0  0  0  0  0  0  0  0  0  0  0
    0.8651   -4.0292   -0.1802 H   0  0  0  0  0  0  0  0  0  0  0  0
  1  2  1  0
  2  7  2  0
  2  3  1  0
  3  4  2  0
  4  5  1  0
  5  6  2  0
  6  7  1  0
  1  8  1  0
  1  9  1  0
  1 10  1  0
  3 11  1  0
  5 12  1  0
  6 13  1  0
M  END
>  <_TriposChargeType>  (586) 
USER_CHARGES

>  <solvdG>  (586) 
-5.51

>  <fdG>  (586) 
-6.16

>  <fname>  (586) 
mobley_8966374

>  <cname>  (586) 
 2-methylpyrazine

>  <dataset>  (586) 
FreeSolv

$$$$
bromomethane
     RDKit          3D

  5  4  0  0  0  0  0  0  0  0999 V2000
    0.1359   -0.1000   -0.0729 C   0  0  0  0  0  0  0  0  0  0  0  0
   -1.2946    0.9519    0.6956 Br  0  0  0  0  0  0  0  0  0  0  0  0
    0.8158    0.5792   -0.5895 H   0  0  0  0  0  0  0  0  0  0  0  0
    0.6483   -0.6190    0.7385 H   0  0  0  0  0  0  0  0  0  0  0  0
   -0.3055   -0.8121   -0.7717 H   0  0  0  0  0  0  0  0  0  0  0  0
  1  2  1  0
  1  3  1  0
  1  4  1  0
  1  5  1  0
M  END
>  <_TriposChargeType>  (587) 
USER_CHARGES

>  <solvdG>  (587) 
-0.82

>  <fdG>  (587) 
0.46

>  <fname>  (587) 
mobley_8983100

>  <cname>  (587) 
 bromomethane

>  <dataset>  (587) 
FreeSolv

$$$$
2,3-dimethylbuta-1,3-diene
     RDKit          3D

 16 15  0  0  0  0  0  0  0  0999 V2000
   -1.5200   -0.5189    1.1448 C   0  0  0  0  0  0  0  0  0  0  0  0
   -0.4086    0.3016    0.5347 C   0  0  0  0  0  0  0  0  0  0  0  0
   -0.2101    1.5498    0.9966 C   0  0  0  0  0  0  0  0  0  0  0  0
    0.4071   -0.3009   -0.5360 C   0  0  0  0  0  0  0  0  0  0  0  0
    0.8166    0.3810   -1.6214 C   0  0  0  0  0  0  0  0  0  0  0  0
    0.8028   -1.7531   -0.4122 C   0  0  0  0  0  0  0  0  0  0  0  0
   -2.4716   -0.3843    0.6179 H   0  0  0  0  0  0  0  0  0  0  0  0
   -1.6895   -0.2287    2.1875 H   0  0  0  0  0  0  0  0  0  0  0  0
   -1.2821   -1.5875    1.1045 H   0  0  0  0  0  0  0  0  0  0  0  0
    0.5633    2.2071    0.6162 H   0  0  0  0  0  0  0  0  0  0  0  0
   -0.8306    1.9604    1.7878 H   0  0  0  0  0  0  0  0  0  0  0  0
    1.4164   -0.0966   -2.3906 H   0  0  0  0  0  0  0  0  0  0  0  0
    0.5786    1.4250   -1.7911 H   0  0  0  0  0  0  0  0  0  0  0  0
    0.0514   -2.4018   -0.8758 H   0  0  0  0  0  0  0  0  0  0  0  0
    1.7569   -1.9663   -0.9079 H   0  0  0  0  0  0  0  0  0  0  0  0
    0.9203   -2.0360    0.6395 H   0  0  0  0  0  0  0  0  0  0  0  0
  1  2  1  0
  2  3  2  3
  2  4  1  0
  4  5  2  3
  4  6  1  0
  1  7  1  0
  1  8  1  0
  1  9  1  0
  3 10  1  0
  3 11  1  0
  5 12  1  0
  5 13  1  0
  6 14  1  0
  6 15  1  0
  6 16  1  0
M  END
>  <_TriposChargeType>  (588) 
USER_CHARGES

>  <solvdG>  (588) 
0.4

>  <fdG>  (588) 
1.86

>  <fname>  (588) 
mobley_900088

>  <cname>  (588) 
 2,3-dimethylbuta-1,3-diene

>  <dataset>  (588) 
FreeSolv

$$$$
1-naphthyl N-methylcarbamate
     RDKit          3D

 26 27  0  0  0  0  0  0  0  0999 V2000
   -3.4595   -6.6153   -0.2283 C   0  0  0  0  0  0  0  0  0  0  0  0
   -2.5248   -5.8298    0.5436 N   0  0  0  0  0  0  0  0  0  0  0  0
   -1.6852   -4.8842   -0.0081 C   0  0  0  0  0  0  0  0  0  0  0  0
   -1.6239   -4.5903   -1.1983 O   0  0  0  0  0  0  0  0  0  0  0  0
   -0.9141   -4.3076    0.9988 O   0  0  0  0  0  0  0  0  0  0  0  0
   -0.0479   -3.3542    0.5448 C   0  0  0  0  0  0  0  0  0  0  0  0
   -0.4966   -2.0341    0.4940 C   0  0  0  0  0  0  0  0  0  0  0  0
    0.3500   -1.0275    0.0392 C   0  0  0  0  0  0  0  0  0  0  0  0
    1.6484   -1.3369   -0.3665 C   0  0  0  0  0  0  0  0  0  0  0  0
    2.1168   -2.6602   -0.3222 C   0  0  0  0  0  0  0  0  0  0  0  0
    1.2560   -3.6839    0.1403 C   0  0  0  0  0  0  0  0  0  0  0  0
    1.7243   -5.0072    0.1848 C   0  0  0  0  0  0  0  0  0  0  0  0
    3.0228   -5.3167   -0.2210 C   0  0  0  0  0  0  0  0  0  0  0  0
    3.8693   -4.3100   -0.6758 C   0  0  0  0  0  0  0  0  0  0  0  0
    3.4207   -2.9899   -0.7267 C   0  0  0  0  0  0  0  0  0  0  0  0
   -2.9836   -7.5389   -0.5678 H   0  0  0  0  0  0  0  0  0  0  0  0
   -3.7961   -6.0510   -1.1023 H   0  0  0  0  0  0  0  0  0  0  0  0
   -4.3309   -6.8714    0.3803 H   0  0  0  0  0  0  0  0  0  0  0  0
   -2.4984   -5.9668    1.5493 H   0  0  0  0  0  0  0  0  0  0  0  0
   -1.5065   -1.7846    0.8084 H   0  0  0  0  0  0  0  0  0  0  0  0
    0.0002    0.0001    0.0002 H   0  0  0  0  0  0  0  0  0  0  0  0
    2.2926   -0.5342   -0.7189 H   0  0  0  0  0  0  0  0  0  0  0  0
    1.0887   -5.8176    0.5343 H   0  0  0  0  0  0  0  0  0  0  0  0
    3.3732   -6.3440   -0.1816 H   0  0  0  0  0  0  0  0  0  0  0  0
    4.8795   -4.5518   -0.9922 H   0  0  0  0  0  0  0  0  0  0  0  0
    4.0994   -2.2192   -1.0863 H   0  0  0  0  0  0  0  0  0  0  0  0
  1  2  1  0
  2  3  1  0
  3  4  2  0
  3  5  1  0
  5  6  1  0
  6 11  2  0
  6  7  1  0
  7  8  2  0
  8  9  1  0
  9 10  2  0
 10 15  1  0
 10 11  1  0
 11 12  1  0
 12 13  2  0
 13 14  1  0
 14 15  2  0
  1 16  1  0
  1 17  1  0
  1 18  1  0
  2 19  1  0
  7 20  1  0
  8 21  1  0
  9 22  1  0
 12 23  1  0
 13 24  1  0
 14 25  1  0
 15 26  1  0
M  END
>  <_TriposChargeType>  (589) 
USER_CHARGES

>  <solvdG>  (589) 
-9.45

>  <fdG>  (589) 
-10.44

>  <fname>  (589) 
mobley_9007496

>  <cname>  (589) 
 naphthalen-1-yl N-methylcarbamate

>  <dataset>  (589) 
FreeSolv

$$$$
1-bromooctane
     RDKit          3D

 26 25  0  0  0  0  0  0  0  0999 V2000
    4.3908    1.3492   -1.1542 C   0  0  0  0  0  0  0  0  0  0  0  0
    2.9579    1.2149   -1.6472 C   0  0  0  0  0  0  0  0  0  0  0  0
    2.0789    0.5030   -0.6181 C   0  0  0  0  0  0  0  0  0  0  0  0
    0.6239    0.3425   -1.0676 C   0  0  0  0  0  0  0  0  0  0  0  0
   -0.2559   -0.3698   -0.0379 C   0  0  0  0  0  0  0  0  0  0  0  0
   -1.6964   -0.5028   -0.5379 C   0  0  0  0  0  0  0  0  0  0  0  0
   -2.5787   -1.2144    0.4888 C   0  0  0  0  0  0  0  0  0  0  0  0
   -4.0064   -1.3426   -0.0144 C   0  0  0  0  0  0  0  0  0  0  0  0
   -5.0958   -2.2519    1.3183 Br  0  0  0  0  0  0  0  0  0  0  0  0
    5.0149    1.8594   -1.8949 H   0  0  0  0  0  0  0  0  0  0  0  0
    4.4196    1.9314   -0.2278 H   0  0  0  0  0  0  0  0  0  0  0  0
    4.8298    0.3669   -0.9522 H   0  0  0  0  0  0  0  0  0  0  0  0
    2.9535    0.6573   -2.5908 H   0  0  0  0  0  0  0  0  0  0  0  0
    2.5654    2.2155   -1.8569 H   0  0  0  0  0  0  0  0  0  0  0  0
    2.4893   -0.4965   -0.4275 H   0  0  0  0  0  0  0  0  0  0  0  0
    2.1119    1.0440    0.3355 H   0  0  0  0  0  0  0  0  0  0  0  0
    0.2000    1.3273   -1.2991 H   0  0  0  0  0  0  0  0  0  0  0  0
    0.6169   -0.2316   -2.0026 H   0  0  0  0  0  0  0  0  0  0  0  0
   -0.2553    0.1865    0.9059 H   0  0  0  0  0  0  0  0  0  0  0  0
    0.1537   -1.3656    0.1700 H   0  0  0  0  0  0  0  0  0  0  0  0
   -2.1057    0.4933   -0.7462 H   0  0  0  0  0  0  0  0  0  0  0  0
   -1.7080   -1.0617   -1.4816 H   0  0  0  0  0  0  0  0  0  0  0  0
   -2.5632   -0.6576    1.4342 H   0  0  0  0  0  0  0  0  0  0  0  0
   -2.1655   -2.2084    0.7013 H   0  0  0  0  0  0  0  0  0  0  0  0
   -4.4703   -0.3671   -0.1842 H   0  0  0  0  0  0  0  0  0  0  0  0
   -4.0668   -1.9404   -0.9279 H   0  0  0  0  0  0  0  0  0  0  0  0
  1  2  1  0
  2  3  1  0
  3  4  1  0
  4  5  1  0
  5  6  1  0
  6  7  1  0
  7  8  1  0
  8  9  1  0
  1 10  1  0
  1 11  1  0
  1 12  1  0
  2 13  1  0
  2 14  1  0
  3 15  1  0
  3 16  1  0
  4 17  1  0
  4 18  1  0
  5 19  1  0
  5 20  1  0
  6 21  1  0
  6 22  1  0
  7 23  1  0
  7 24  1  0
  8 25  1  0
  8 26  1  0
M  END
>  <_TriposChargeType>  (590) 
USER_CHARGES

>  <solvdG>  (590) 
0.52

>  <fdG>  (590) 
1.35

>  <fname>  (590) 
mobley_9015240

>  <cname>  (590) 
 1-bromooctane

>  <dataset>  (590) 
FreeSolv

$$$$
methyl 2,2,2-trifluoroacetate
     RDKit          3D

 11 10  0  0  0  0  0  0  0  0999 V2000
   -0.4486   -0.9868    0.1664 C   0  0  0  0  0  0  0  0  0  0  0  0
   -0.8571   -1.1186    1.5318 O   0  0  0  0  0  0  0  0  0  0  0  0
    0.1400   -1.0129    2.4552 C   0  0  0  0  0  0  0  0  0  0  0  0
    1.3259   -0.8196    2.2247 O   0  0  0  0  0  0  0  0  0  0  0  0
   -0.4290   -1.1781    3.8267 C   0  0  0  0  0  0  0  0  0  0  0  0
   -1.7694   -1.3875    3.8018 F   0  0  0  0  0  0  0  0  0  0  0  0
    0.1220   -2.2316    4.4808 F   0  0  0  0  0  0  0  0  0  0  0  0
   -0.2161   -0.0810    4.5963 F   0  0  0  0  0  0  0  0  0  0  0  0
   -1.3191   -1.0869   -0.4864 H   0  0  0  0  0  0  0  0  0  0  0  0
    0.2885   -1.7582   -0.0705 H   0  0  0  0  0  0  0  0  0  0  0  0
   -0.0000   -0.0009    0.0232 H   0  0  0  0  0  0  0  0  0  0  0  0
  1  2  1  0
  2  3  1  0
  3  4  2  0
  3  5  1  0
  5  6  1  0
  5  7  1  0
  5  8  1  0
  1  9  1  0
  1 10  1  0
  1 11  1  0
M  END
>  <_TriposChargeType>  (591) 
USER_CHARGES

>  <solvdG>  (591) 
-1.1

>  <fdG>  (591) 
-1.35

>  <fname>  (591) 
mobley_9028462

>  <cname>  (591) 
 methyl 2,2,2-trifluoroacetate

>  <dataset>  (591) 
FreeSolv

$$$$
butyl nitrate
     RDKit          3D

 17 16  0  0  0  0  0  0  0  0999 V2000
    0.3902   -1.0212   -0.0846 C   0  0  0  0  0  0  0  0  0  0  0  0
   -0.5795   -2.0238    0.5201 C   0  0  0  0  0  0  0  0  0  0  0  0
   -1.9307   -1.9925   -0.1885 C   0  0  0  0  0  0  0  0  0  0  0  0
   -2.9047   -2.9950    0.4140 C   0  0  0  0  0  0  0  0  0  0  0  0
   -4.1377   -2.9158   -0.2877 O   0  0  0  0  0  0  0  0  0  0  0  0
   -5.1269   -3.8164    0.1966 N   0  0  0  0  0  4  0  0  0  0  0  0
   -4.8203   -4.5461    1.1422 O   0  0  0  0  0  0  0  0  0  0  0  0
   -6.1900   -3.7373   -0.4204 O   0  0  0  0  0  1  0  0  0  0  0  0
    1.3562   -1.0504    0.4294 H   0  0  0  0  0  0  0  0  0  0  0  0
    0.5590   -1.2299   -1.1459 H   0  0  0  0  0  0  0  0  0  0  0  0
   -0.0104   -0.0065    0.0025 H   0  0  0  0  0  0  0  0  0  0  0  0
   -0.1467   -3.0287    0.4522 H   0  0  0  0  0  0  0  0  0  0  0  0
   -0.7117   -1.7988    1.5848 H   0  0  0  0  0  0  0  0  0  0  0  0
   -2.3650   -0.9865   -0.1342 H   0  0  0  0  0  0  0  0  0  0  0  0
   -1.8040   -2.2065   -1.2572 H   0  0  0  0  0  0  0  0  0  0  0  0
   -2.5191   -4.0157    0.3260 H   0  0  0  0  0  0  0  0  0  0  0  0
   -3.0903   -2.7736    1.4699 H   0  0  0  0  0  0  0  0  0  0  0  0
  1  2  1  0
  2  3  1  0
  3  4  1  0
  4  5  1  0
  5  6  1  0
  6  7  2  0
  6  8  1  0
  1  9  1  0
  1 10  1  0
  1 11  1  0
  2 12  1  0
  2 13  1  0
  3 14  1  0
  3 15  1  0
  4 16  1  0
  4 17  1  0
M  CHG  2   6   1   8  -1
M  END
>  <_TriposChargeType>  (592) 
USER_CHARGES

>  <solvdG>  (592) 
-2.09

>  <fdG>  (592) 
-1.94

>  <fname>  (592) 
mobley_902954

>  <cname>  (592) 
 butyl nitrate

>  <dataset>  (592) 
FreeSolv

$$$$
fluoromethane
     RDKit          3D

  5  4  0  0  0  0  0  0  0  0999 V2000
    0.0349   -0.0344   -0.0359 C   0  0  0  0  0  0  0  0  0  0  0  0
   -0.7453    0.7337    0.7652 F   0  0  0  0  0  0  0  0  0  0  0  0
    0.8200    0.5912   -0.4654 H   0  0  0  0  0  0  0  0  0  0  0  0
    0.4757   -0.8328    0.5646 H   0  0  0  0  0  0  0  0  0  0  0  0
   -0.5853   -0.4577   -0.8285 H   0  0  0  0  0  0  0  0  0  0  0  0
  1  2  1  0
  1  3  1  0
  1  4  1  0
  1  5  1  0
M  END
>  <_TriposChargeType>  (593) 
USER_CHARGES

>  <solvdG>  (593) 
-0.22

>  <fdG>  (593) 
0.88

>  <fname>  (593) 
mobley_9029594

>  <cname>  (593) 
 fluoromethane

>  <dataset>  (593) 
FreeSolv

$$$$
methane
     RDKit          3D

  5  4  0  0  0  0  0  0  0  0999 V2000
   -0.0000   -0.0001    0.0000 C   0  0  0  0  0  0  0  0  0  0  0  0
    0.5541    0.7996    0.4965 H   0  0  0  0  0  0  0  0  0  0  0  0
    0.6833   -0.8134   -0.2537 H   0  0  0  0  0  0  0  0  0  0  0  0
   -0.7782   -0.3735    0.6693 H   0  0  0  0  0  0  0  0  0  0  0  0
   -0.4591    0.3873   -0.9121 H   0  0  0  0  0  0  0  0  0  0  0  0
  1  2  1  0
  1  3  1  0
  1  4  1  0
  1  5  1  0
M  END
>  <_TriposChargeType>  (594) 
USER_CHARGES

>  <solvdG>  (594) 
2.0

>  <fdG>  (594) 
2.45

>  <fname>  (594) 
mobley_9055303

>  <cname>  (594) 
 methane

>  <dataset>  (594) 
FreeSolv

$$$$
methylsulfanylmethane
     RDKit          3D

  9  8  0  0  0  0  0  0  0  0999 V2000
    0.9856   -0.3289    0.3401 C   0  0  0  0  0  0  0  0  0  0  0  0
    1.2245    0.1824    2.0582 S   0  0  0  0  0  0  0  0  0  0  0  0
    2.8855   -0.4869    2.3101 C   0  0  0  0  0  0  0  0  0  0  0  0
    0.0025   -0.0056   -0.0107 H   0  0  0  0  0  0  0  0  0  0  0  0
    1.0509   -1.4171    0.2643 H   0  0  0  0  0  0  0  0  0  0  0  0
    1.7559    0.1203   -0.2914 H   0  0  0  0  0  0  0  0  0  0  0  0
    3.2180   -0.2717    3.3270 H   0  0  0  0  0  0  0  0  0  0  0  0
    3.5770   -0.0287    1.6010 H   0  0  0  0  0  0  0  0  0  0  0  0
    2.8731   -1.5670    2.1555 H   0  0  0  0  0  0  0  0  0  0  0  0
  1  2  1  0
  2  3  1  0
  1  4  1  0
  1  5  1  0
  1  6  1  0
  3  7  1  0
  3  8  1  0
  3  9  1  0
M  END
>  <_TriposChargeType>  (595) 
USER_CHARGES

>  <solvdG>  (595) 
-1.61

>  <fdG>  (595) 
0.44

>  <fname>  (595) 
mobley_9073553

>  <cname>  (595) 
 methylsulfanylmethane

>  <dataset>  (595) 
FreeSolv

$$$$
methylcyclohexane
     RDKit          3D

 21 21  0  0  0  0  0  0  0  0999 V2000
    3.3738   -3.4625   -2.4153 C   0  0  0  0  0  0  0  0  0  0  0  0
    2.1480   -2.7023   -1.9123 C   0  0  0  0  0  0  0  0  0  0  0  0
    2.0621   -2.7649   -0.3812 C   0  0  0  0  0  0  0  0  0  0  0  0
    0.8735   -1.9668    0.1497 C   0  0  0  0  0  0  0  0  0  0  0  0
    0.8995   -0.5234   -0.3432 C   0  0  0  0  0  0  0  0  0  0  0  0
    0.9867   -0.4515   -1.8645 C   0  0  0  0  0  0  0  0  0  0  0  0
    2.1754   -1.2472   -2.3989 C   0  0  0  0  0  0  0  0  0  0  0  0
    3.3524   -4.4996   -2.0673 H   0  0  0  0  0  0  0  0  0  0  0  0
    3.4016   -3.4666   -3.5090 H   0  0  0  0  0  0  0  0  0  0  0  0
    4.2928   -2.9953   -2.0490 H   0  0  0  0  0  0  0  0  0  0  0  0
    1.2555   -3.1888   -2.3280 H   0  0  0  0  0  0  0  0  0  0  0  0
    1.9731   -3.8076   -0.0536 H   0  0  0  0  0  0  0  0  0  0  0  0
    2.9864   -2.3713    0.0610 H   0  0  0  0  0  0  0  0  0  0  0  0
   -0.0598   -2.4457   -0.1711 H   0  0  0  0  0  0  0  0  0  0  0  0
    0.8793   -1.9815    1.2456 H   0  0  0  0  0  0  0  0  0  0  0  0
   -0.0006   -0.0005   -0.0004 H   0  0  0  0  0  0  0  0  0  0  0  0
    1.7597   -0.0036    0.0962 H   0  0  0  0  0  0  0  0  0  0  0  0
    0.0599   -0.8421   -2.3025 H   0  0  0  0  0  0  0  0  0  0  0  0
    1.0718    0.5949   -2.1790 H   0  0  0  0  0  0  0  0  0  0  0  0
    2.1663   -1.2188   -3.4951 H   0  0  0  0  0  0  0  0  0  0  0  0
    3.1065   -0.7632   -2.0769 H   0  0  0  0  0  0  0  0  0  0  0  0
  1  2  1  0
  2  7  1  0
  2  3  1  0
  3  4  1  0
  4  5  1  0
  5  6  1  0
  6  7  1  0
  1  8  1  0
  1  9  1  0
  1 10  1  0
  2 11  1  0
  3 12  1  0
  3 13  1  0
  4 14  1  0
  4 15  1  0
  5 16  1  0
  5 17  1  0
  6 18  1  0
  6 19  1  0
  7 20  1  0
  7 21  1  0
M  END
>  <_TriposChargeType>  (596) 
USER_CHARGES

>  <solvdG>  (596) 
1.7

>  <fdG>  (596) 
1.68

>  <fname>  (596) 
mobley_9100956

>  <cname>  (596) 
 methylcyclohexane

>  <dataset>  (596) 
FreeSolv

$$$$
(Z)-pent-2-ene
     RDKit          3D

 15 14  0  0  0  0  0  0  0  0999 V2000
    2.0323    2.2809   -0.2501 C   0  0  0  0  0  0  0  0  0  0  0  0
    1.0743    1.7589    0.8093 C   0  0  0  0  0  0  0  0  0  0  0  0
    0.8257    0.2886    0.6459 C   0  0  0  0  0  0  0  0  0  0  0  0
    1.5643   -0.6624    1.2357 C   0  0  0  0  0  0  0  0  0  0  0  0
    2.7262   -0.3780    2.1287 C   0  0  0  0  0  0  0  0  0  0  0  0
    2.1996    3.3540   -0.1127 H   0  0  0  0  0  0  0  0  0  0  0  0
    1.6302    2.1270   -1.2572 H   0  0  0  0  0  0  0  0  0  0  0  0
    3.0033    1.7777   -0.1900 H   0  0  0  0  0  0  0  0  0  0  0  0
    1.4999    1.9352    1.8037 H   0  0  0  0  0  0  0  0  0  0  0  0
    0.1372    2.3255    0.7584 H   0  0  0  0  0  0  0  0  0  0  0  0
    0.0000    0.0000    0.0000 H   0  0  0  0  0  0  0  0  0  0  0  0
    1.3245   -1.7092    1.0691 H   0  0  0  0  0  0  0  0  0  0  0  0
    2.3868   -0.2911    3.1654 H   0  0  0  0  0  0  0  0  0  0  0  0
    3.2402    0.5500    1.8591 H   0  0  0  0  0  0  0  0  0  0  0  0
    3.4494   -1.1972    2.0712 H   0  0  0  0  0  0  0  0  0  0  0  0
  1  2  1  0
  2  3  1  0
  3  4  2  0
  4  5  1  0
  1  6  1  0
  1  7  1  0
  1  8  1  0
  2  9  1  0
  2 10  1  0
  3 11  1  0
  4 12  1  0
  5 13  1  0
  5 14  1  0
  5 15  1  0
M  END
>  <_TriposChargeType>  (597) 
USER_CHARGES

>  <solvdG>  (597) 
1.31

>  <fdG>  (597) 
2.37

>  <fname>  (597) 
mobley_9112978

>  <cname>  (597) 
 pent-2-ene

>  <dataset>  (597) 
FreeSolv

$$$$
methyl 2-cyanoacetate
     RDKit          3D

 12 11  0  0  0  0  0  0  0  0999 V2000
   -0.9283    0.5693    0.0840 C   0  0  0  0  0  0  0  0  0  0  0  0
   -1.2500    0.7975    1.4599 O   0  0  0  0  0  0  0  0  0  0  0  0
   -1.4583   -0.3259    2.2102 C   0  0  0  0  0  0  0  0  0  0  0  0
   -1.3922   -1.4787    1.8052 O   0  0  0  0  0  0  0  0  0  0  0  0
   -1.7831    0.0874    3.6246 C   0  0  0  0  0  0  0  0  0  0  0  0
   -2.0211   -1.0690    4.4962 C   0  0  0  0  0  0  0  0  0  0  0  0
   -2.2105   -1.9807    5.1886 N   0  0  0  0  0  0  0  0  0  0  0  0
   -0.7828    1.5275   -0.4207 H   0  0  0  0  0  0  0  0  0  0  0  0
   -1.7391    0.0133   -0.3934 H   0  0  0  0  0  0  0  0  0  0  0  0
   -0.0061   -0.0138    0.0265 H   0  0  0  0  0  0  0  0  0  0  0  0
   -2.6775    0.7189    3.6028 H   0  0  0  0  0  0  0  0  0  0  0  0
   -0.9439    0.6735    4.0138 H   0  0  0  0  0  0  0  0  0  0  0  0
  1  2  1  0
  2  3  1  0
  3  4  2  0
  3  5  1  0
  5  6  1  0
  6  7  3  0
  1  8  1  0
  1  9  1  0
  1 10  1  0
  5 11  1  0
  5 12  1  0
M  END
>  <_TriposChargeType>  (598) 
USER_CHARGES

>  <solvdG>  (598) 
-6.72

>  <fdG>  (598) 
-6.36

>  <fname>  (598) 
mobley_9114381

>  <cname>  (598) 
 methyl 2-cyanoacetate

>  <dataset>  (598) 
FreeSolv

$$$$
but-1-yne
     RDKit          3D

 10  9  0  0  0  0  0  0  0  0999 V2000
    1.0319    0.2735    0.2461 C   0  0  0  0  0  0  0  0  0  0  0  0
    1.4682   -0.3553    1.5586 C   0  0  0  0  0  0  0  0  0  0  0  0
    1.3994   -1.8207    1.4971 C   0  0  0  0  0  0  0  0  0  0  0  0
    1.3443   -3.0191    1.4503 C   0  0  0  0  0  0  0  0  0  0  0  0
    1.0840    1.3667    0.2944 H   0  0  0  0  0  0  0  0  0  0  0  0
    0.0010   -0.0023   -0.0015 H   0  0  0  0  0  0  0  0  0  0  0  0
    1.6793   -0.0623   -0.5702 H   0  0  0  0  0  0  0  0  0  0  0  0
    0.8280    0.0122    2.3683 H   0  0  0  0  0  0  0  0  0  0  0  0
    2.4923   -0.0416    1.7893 H   0  0  0  0  0  0  0  0  0  0  0  0
    1.2950   -4.0821    1.4092 H   0  0  0  0  0  0  0  0  0  0  0  0
  1  2  1  0
  2  3  1  0
  3  4  3  0
  1  5  1  0
  1  6  1  0
  1  7  1  0
  2  8  1  0
  2  9  1  0
  4 10  1  0
M  END
>  <_TriposChargeType>  (599) 
USER_CHARGES

>  <solvdG>  (599) 
-0.16

>  <fdG>  (599) 
0.28

>  <fname>  (599) 
mobley_9121449

>  <cname>  (599) 
 but-1-yne

>  <dataset>  (599) 
FreeSolv

$$$$
1,4-dimethylcyclohexane
     RDKit          3D

 24 24  0  0  0  0  0  0  0  0999 V2000
   -0.6220   -2.5762    0.6708 C   0  0  0  0  0  0  0  0  0  0  0  0
    0.4196   -1.6683    1.3218 C   0  0  1  0  0  0  0  0  0  0  0  0
    0.8696   -0.5734    0.3461 C   0  0  0  0  0  0  0  0  0  0  0  0
    1.8746    0.3795    0.9910 C   0  0  0  0  0  0  0  0  0  0  0  0
    1.3236    0.9946    2.2837 C   0  0  1  0  0  0  0  0  0  0  0  0
    0.8743   -0.1004    3.2593 C   0  0  0  0  0  0  0  0  0  0  0  0
   -0.1309   -1.0531    2.6146 C   0  0  0  0  0  0  0  0  0  0  0  0
    2.3642    1.9035    2.9349 C   0  0  0  0  0  0  0  0  0  0  0  0
   -0.2277   -3.0141   -0.2511 H   0  0  0  0  0  0  0  0  0  0  0  0
   -0.8996   -3.3898    1.3475 H   0  0  0  0  0  0  0  0  0  0  0  0
   -1.5250   -2.0098    0.4241 H   0  0  0  0  0  0  0  0  0  0  0  0
    1.2922   -2.2847    1.5765 H   0  0  0  0  0  0  0  0  0  0  0  0
    1.3235   -1.0283   -0.5425 H   0  0  0  0  0  0  0  0  0  0  0  0
   -0.0001   -0.0004    0.0001 H   0  0  0  0  0  0  0  0  0  0  0  0
    2.8038   -0.1653    1.2022 H   0  0  0  0  0  0  0  0  0  0  0  0
    2.1276    1.1735    0.2783 H   0  0  0  0  0  0  0  0  0  0  0  0
    0.4507    1.6104    2.0289 H   0  0  0  0  0  0  0  0  0  0  0  0
    1.7443   -0.6736    3.6045 H   0  0  0  0  0  0  0  0  0  0  0  0
    0.4210    0.3541    4.1483 H   0  0  0  0  0  0  0  0  0  0  0  0
   -0.3844   -1.8469    3.3273 H   0  0  0  0  0  0  0  0  0  0  0  0
   -1.0599   -0.5079    2.4034 H   0  0  0  0  0  0  0  0  0  0  0  0
    1.9588    2.3320    3.8500 H   0  0  0  0  0  0  0  0  0  0  0  0
    2.6304    2.7083    2.2516 H   0  0  0  0  0  0  0  0  0  0  0  0
    3.2573    1.3290    3.1750 H   0  0  0  0  0  0  0  0  0  0  0  0
  1  2  1  0
  2  7  1  0
  2  3  1  0
  3  4  1  0
  4  5  1  0
  5  6  1  0
  6  7  1  0
  5  8  1  0
  1  9  1  0
  1 10  1  0
  1 11  1  0
  2 12  1  1
  3 13  1  0
  3 14  1  0
  4 15  1  0
  4 16  1  0
  5 17  1  6
  6 18  1  0
  6 19  1  0
  7 20  1  0
  7 21  1  0
  8 22  1  0
  8 23  1  0
  8 24  1  0
M  END
>  <_TriposChargeType>  (600) 
USER_CHARGES

>  <solvdG>  (600) 
2.11

>  <fdG>  (600) 
1.92

>  <fname>  (600) 
mobley_9139060

>  <cname>  (600) 
 1,4-dimethylcyclohexane

>  <dataset>  (600) 
FreeSolv

$$$$
propan-1-amine
     RDKit          3D

 13 12  0  0  0  0  0  0  0  0999 V2000
    0.9917    0.0882   -0.4552 C   0  0  0  0  0  0  0  0  0  0  0  0
    1.2282    1.5173   -0.9225 C   0  0  0  0  0  0  0  0  0  0  0  0
    2.6189    1.7221   -1.5111 C   0  0  0  0  0  0  0  0  0  0  0  0
    2.8340    3.0732   -1.9497 N   0  0  0  0  0  0  0  0  0  0  0  0
   -0.0139   -0.0268   -0.0383 H   0  0  0  0  0  0  0  0  0  0  0  0
    1.0901   -0.6045   -1.2972 H   0  0  0  0  0  0  0  0  0  0  0  0
    1.7176   -0.2071    0.3087 H   0  0  0  0  0  0  0  0  0  0  0  0
    1.1032    2.1909   -0.0667 H   0  0  0  0  0  0  0  0  0  0  0  0
    0.4636    1.7859   -1.6611 H   0  0  0  0  0  0  0  0  0  0  0  0
    3.3808    1.5059   -0.7556 H   0  0  0  0  0  0  0  0  0  0  0  0
    2.7898    1.0607   -2.3663 H   0  0  0  0  0  0  0  0  0  0  0  0
    3.1171    3.7700   -1.2782 H   0  0  0  0  0  0  0  0  0  0  0  0
    2.5082    3.3526   -2.8621 H   0  0  0  0  0  0  0  0  0  0  0  0
  1  2  1  0
  2  3  1  0
  3  4  1  0
  1  5  1  0
  1  6  1  0
  1  7  1  0
  2  8  1  0
  2  9  1  0
  3 10  1  0
  3 11  1  0
  4 12  1  0
  4 13  1  0
M  END
>  <_TriposChargeType>  (601) 
USER_CHARGES

>  <solvdG>  (601) 
-4.39

>  <fdG>  (601) 
-3.05

>  <fname>  (601) 
mobley_9185328

>  <cname>  (601) 
 propan-1-amine

>  <dataset>  (601) 
FreeSolv

$$$$
oct-1-ene
     RDKit          3D

 24 23  0  0  0  0  0  0  0  0999 V2000
    1.5035    3.3310    0.9516 C   0  0  0  0  0  0  0  0  0  0  0  0
    1.5685    1.8424    1.2544 C   0  0  0  0  0  0  0  0  0  0  0  0
    0.3830    1.0941    0.6434 C   0  0  0  0  0  0  0  0  0  0  0  0
    0.4546   -0.4030    0.9518 C   0  0  0  0  0  0  0  0  0  0  0  0
   -0.7115   -1.2026    0.3620 C   0  0  0  0  0  0  0  0  0  0  0  0
   -0.6387   -2.7000    0.6712 C   0  0  0  0  0  0  0  0  0  0  0  0
   -1.8023   -3.4341    0.0714 C   0  0  0  0  0  0  0  0  0  0  0  0
   -2.6917   -4.1348    0.7835 C   0  0  0  0  0  0  0  0  0  0  0  0
    2.3554    3.8585    1.3925 H   0  0  0  0  0  0  0  0  0  0  0  0
    1.5078    3.5123   -0.1279 H   0  0  0  0  0  0  0  0  0  0  0  0
    0.5865    3.7623    1.3650 H   0  0  0  0  0  0  0  0  0  0  0  0
    2.5077    1.4361    0.8614 H   0  0  0  0  0  0  0  0  0  0  0  0
    1.5811    1.6973    2.3408 H   0  0  0  0  0  0  0  0  0  0  0  0
    0.3791    1.2549   -0.4405 H   0  0  0  0  0  0  0  0  0  0  0  0
   -0.5536    1.5066    1.0372 H   0  0  0  0  0  0  0  0  0  0  0  0
    1.4039   -0.8123    0.5850 H   0  0  0  0  0  0  0  0  0  0  0  0
    0.4496   -0.5451    2.0397 H   0  0  0  0  0  0  0  0  0  0  0  0
   -0.7503   -1.0453   -0.7235 H   0  0  0  0  0  0  0  0  0  0  0  0
   -1.6451   -0.7942    0.7705 H   0  0  0  0  0  0  0  0  0  0  0  0
    0.2802   -3.1298    0.2574 H   0  0  0  0  0  0  0  0  0  0  0  0
   -0.6028   -2.8512    1.7569 H   0  0  0  0  0  0  0  0  0  0  0  0
   -1.9138   -3.3958   -1.0091 H   0  0  0  0  0  0  0  0  0  0  0  0
   -3.5189   -4.6509    0.3090 H   0  0  0  0  0  0  0  0  0  0  0  0
   -2.6016   -4.2009    1.8622 H   0  0  0  0  0  0  0  0  0  0  0  0
  1  2  1  0
  2  3  1  0
  3  4  1  0
  4  5  1  0
  5  6  1  0
  6  7  1  0
  7  8  2  3
  1  9  1  0
  1 10  1  0
  1 11  1  0
  2 12  1  0
  2 13  1  0
  3 14  1  0
  3 15  1  0
  4 16  1  0
  4 17  1  0
  5 18  1  0
  5 19  1  0
  6 20  1  0
  6 21  1  0
  7 22  1  0
  8 23  1  0
  8 24  1  0
M  END
>  <_TriposChargeType>  (602) 
USER_CHARGES

>  <solvdG>  (602) 
1.92

>  <fdG>  (602) 
2.9

>  <fname>  (602) 
mobley_9197172

>  <cname>  (602) 
 oct-1-ene

>  <dataset>  (602) 
FreeSolv

$$$$
methyl methanesulfonate
     RDKit          3D

 12 11  0  0  0  0  0  0  0  0999 V2000
    0.9319   -0.5584    0.1998 C   0  0  0  0  0  0  0  0  0  0  0  0
    1.9819    0.3849    0.3487 O   0  0  0  0  0  0  0  0  0  0  0  0
    3.4454   -0.1414    0.8490 S   0  0  0  0  0  6  0  0  0  0  0  0
    3.9557   -1.1138   -0.0960 O   0  0  0  0  0  0  0  0  0  0  0  0
    3.4013   -0.4040    2.2732 O   0  0  0  0  0  0  0  0  0  0  0  0
    4.3140    1.3852    0.5949 C   0  0  0  0  0  0  0  0  0  0  0  0
    0.0274   -0.0473   -0.1390 H   0  0  0  0  0  0  0  0  0  0  0  0
    0.7470   -1.0532    1.1565 H   0  0  0  0  0  0  0  0  0  0  0  0
    1.2263   -1.3037   -0.5428 H   0  0  0  0  0  0  0  0  0  0  0  0
    5.3486    1.2262    0.8847 H   0  0  0  0  0  0  0  0  0  0  0  0
    4.2339    1.6367   -0.4586 H   0  0  0  0  0  0  0  0  0  0  0  0
    3.8415    2.1390    1.2176 H   0  0  0  0  0  0  0  0  0  0  0  0
  1  2  1  0
  2  3  1  0
  3  4  2  0
  3  5  2  0
  3  6  1  0
  1  7  1  0
  1  8  1  0
  1  9  1  0
  6 10  1  0
  6 11  1  0
  6 12  1  0
M  END
>  <_TriposChargeType>  (603) 
USER_CHARGES

>  <solvdG>  (603) 
-4.87

>  <fdG>  (603) 
-8.82

>  <fname>  (603) 
mobley_9201263

>  <cname>  (603) 
 methyl methanesulfonate

>  <dataset>  (603) 
FreeSolv

$$$$
N,N-dimethylmethanamine
     RDKit          3D

 13 12  0  0  0  0  0  0  0  0999 V2000
   -0.2717   -0.2549    1.0309 C   0  0  0  0  0  0  0  0  0  0  0  0
    0.9013   -0.5170    1.8640 N   0  0  0  0  0  0  0  0  0  0  0  0
    1.7513    0.6707    1.9381 C   0  0  0  0  0  0  0  0  0  0  0  0
    1.6567   -1.6543    1.3398 C   0  0  0  0  0  0  0  0  0  0  0  0
   -0.9027   -1.1460    0.9795 H   0  0  0  0  0  0  0  0  0  0  0  0
    0.0373    0.0164    0.0177 H   0  0  0  0  0  0  0  0  0  0  0  0
   -0.8574    0.5673    1.4506 H   0  0  0  0  0  0  0  0  0  0  0  0
    2.6112    0.4481    2.5607 H   0  0  0  0  0  0  0  0  0  0  0  0
    1.1810    1.4863    2.3702 H   0  0  0  0  0  0  0  0  0  0  0  0
    2.0757    0.9354    0.9373 H   0  0  0  0  0  0  0  0  0  0  0  0
    2.5187   -1.8254    1.9756 H   0  0  0  0  0  0  0  0  0  0  0  0
    1.9795   -1.4276    0.3292 H   0  0  0  0  0  0  0  0  0  0  0  0
    1.0175   -2.5308    1.3365 H   0  0  0  0  0  0  0  0  0  0  0  0
  1  2  1  0
  2  3  1  0
  2  4  1  0
  1  5  1  0
  1  6  1  0
  1  7  1  0
  3  8  1  0
  3  9  1  0
  3 10  1  0
  4 11  1  0
  4 12  1  0
  4 13  1  0
M  END
>  <_TriposChargeType>  (604) 
USER_CHARGES

>  <solvdG>  (604) 
-3.2

>  <fdG>  (604) 
-2.64

>  <fname>  (604) 
mobley_9209581

>  <cname>  (604) 
 N,N-dimethylmethanamine

>  <dataset>  (604) 
FreeSolv

$$$$
penta-1,4-diene
     RDKit          3D

 13 12  0  0  0  0  0  0  0  0999 V2000
    1.3367   -0.0832   -1.7937 C   0  0  0  0  0  0  0  0  0  0  0  0
    1.2056   -0.3034   -0.4805 C   0  0  0  0  0  0  0  0  0  0  0  0
   -0.0673   -0.7576    0.1704 C   0  0  0  0  0  0  0  0  0  0  0  0
   -0.5498    0.2291    1.1919 C   0  0  0  0  0  0  0  0  0  0  0  0
   -1.7343    0.8485    1.1322 C   0  0  0  0  0  0  0  0  0  0  0  0
    2.2874    0.2387   -2.2044 H   0  0  0  0  0  0  0  0  0  0  0  0
    0.5059   -0.2177   -2.4773 H   0  0  0  0  0  0  0  0  0  0  0  0
    2.0733   -0.1589    0.1587 H   0  0  0  0  0  0  0  0  0  0  0  0
    0.1177   -1.7160    0.6698 H   0  0  0  0  0  0  0  0  0  0  0  0
   -0.8423   -0.9463   -0.5830 H   0  0  0  0  0  0  0  0  0  0  0  0
    0.1029    0.4384    2.0360 H   0  0  0  0  0  0  0  0  0  0  0  0
   -2.0280    1.5476    1.9076 H   0  0  0  0  0  0  0  0  0  0  0  0
   -2.4265    0.6725    0.3163 H   0  0  0  0  0  0  0  0  0  0  0  0
  1  2  2  3
  2  3  1  0
  3  4  1  0
  4  5  2  3
  1  6  1  0
  1  7  1  0
  2  8  1  0
  3  9  1  0
  3 10  1  0
  4 11  1  0
  5 12  1  0
  5 13  1  0
M  END
>  <_TriposChargeType>  (605) 
USER_CHARGES

>  <solvdG>  (605) 
0.93

>  <fdG>  (605) 
2.36

>  <fname>  (605) 
mobley_9246215

>  <cname>  (605) 
 penta-1,4-diene

>  <dataset>  (605) 
FreeSolv

$$$$
dibromomethane
     RDKit          3D

  5  4  0  0  0  0  0  0  0  0999 V2000
    0.1694   -0.0215    0.0448 C   0  0  0  0  0  0  0  0  0  0  0  0
   -0.4991   -0.3017   -1.7476 Br  0  0  0  0  0  0  0  0  0  0  0  0
   -1.2000    0.5174    1.2987 Br  0  0  0  0  0  0  0  0  0  0  0  0
    0.9257    0.7645    0.0074 H   0  0  0  0  0  0  0  0  0  0  0  0
    0.6041   -0.9587    0.3967 H   0  0  0  0  0  0  0  0  0  0  0  0
  1  2  1  0
  1  3  1  0
  1  4  1  0
  1  5  1  0
M  END
>  <_TriposChargeType>  (606) 
USER_CHARGES

>  <solvdG>  (606) 
-1.96

>  <fdG>  (606) 
-0.41

>  <fname>  (606) 
mobley_9246351

>  <cname>  (606) 
 dibromomethane

>  <dataset>  (606) 
FreeSolv

$$$$
3,4-dichlorophenol
     RDKit          3D

 13 13  0  0  0  0  0  0  0  0999 V2000
    1.8851   -1.0363   -0.1124 C   0  0  0  0  0  0  0  0  0  0  0  0
    2.9210   -1.6309    0.6081 C   0  0  0  0  0  0  0  0  0  0  0  0
    2.8783   -1.6520    2.0022 C   0  0  0  0  0  0  0  0  0  0  0  0
    1.7997   -1.0786    2.6757 C   0  0  0  0  0  0  0  0  0  0  0  0
    0.7638   -0.4841    1.9551 C   0  0  0  0  0  0  0  0  0  0  0  0
    0.8066   -0.4630    0.5610 C   0  0  0  0  0  0  0  0  0  0  0  0
   -0.2037    0.1173   -0.1425 O   0  0  0  0  0  0  0  0  0  0  0  0
    1.6891   -1.0733    4.4008 Cl  0  0  0  0  0  0  0  0  0  0  0  0
    4.1918   -2.4028    2.8381 Cl  0  0  0  0  0  0  0  0  0  0  0  0
    1.9240   -1.0229   -1.1984 H   0  0  0  0  0  0  0  0  0  0  0  0
    3.7541   -2.0727    0.0674 H   0  0  0  0  0  0  0  0  0  0  0  0
   -0.0819   -0.0340    2.4702 H   0  0  0  0  0  0  0  0  0  0  0  0
   -0.0307    0.0523   -1.0953 H   0  0  0  0  0  0  0  0  0  0  0  0
  1  6  2  0
  1  2  1  0
  2  3  2  0
  3  4  1  0
  4  5  2  0
  5  6  1  0
  6  7  1  0
  4  8  1  0
  3  9  1  0
  1 10  1  0
  2 11  1  0
  5 12  1  0
  7 13  1  0
M  END
>  <_TriposChargeType>  (607) 
USER_CHARGES

>  <solvdG>  (607) 
-7.29

>  <fdG>  (607) 
-5.14

>  <fname>  (607) 
mobley_9257453

>  <cname>  (607) 
 3,4-dichlorophenol

>  <dataset>  (607) 
FreeSolv

$$$$
diethoxy-(4-nitrophenoxy)-thioxo-$l^{5}-phosphane
     RDKit          3D

 32 32  0  0  0  0  0  0  0  0999 V2000
    1.6467    1.0966   -0.1441 C   0  0  0  0  0  0  0  0  0  0  0  0
    0.4356    0.4916   -0.8214 C   0  0  0  0  0  0  0  0  0  0  0  0
    0.8703   -0.4092   -1.8262 O   0  0  0  0  0  0  0  0  0  0  0  0
   -0.2256   -1.2121   -2.7243 P   0  0  0  0  0  5  0  0  0  0  0  0
   -1.4493   -2.3693   -1.7408 S   0  0  0  0  0  0  0  0  0  0  0  0
    0.7376   -1.9141   -3.8319 O   0  0  0  0  0  0  0  0  0  0  0  0
    1.7524   -2.8116   -3.4151 C   0  0  0  0  0  0  0  0  0  0  0  0
    2.4967   -3.3179   -4.6331 C   0  0  0  0  0  0  0  0  0  0  0  0
   -0.8843    0.0037   -3.5707 O   0  0  0  0  0  0  0  0  0  0  0  0
   -1.8823   -0.0999   -4.5018 C   0  0  0  0  0  0  0  0  0  0  0  0
   -2.0132   -1.2654   -5.2569 C   0  0  0  0  0  0  0  0  0  0  0  0
   -3.0302   -1.3712   -6.2057 C   0  0  0  0  0  0  0  0  0  0  0  0
   -3.9162   -0.3115   -6.3995 C   0  0  0  0  0  0  0  0  0  0  0  0
   -3.7853    0.8541   -5.6444 C   0  0  0  0  0  0  0  0  0  0  0  0
   -2.7683    0.9598   -4.6956 C   0  0  0  0  0  0  0  0  0  0  0  0
   -4.9514   -0.4193   -7.3654 N   0  0  0  0  0  4  0  0  0  0  0  0
   -5.7379    0.5455   -7.5240 O   0  0  0  0  0  0  0  0  0  0  0  0
   -5.0514   -1.4764   -8.0340 O   0  0  0  0  0  1  0  0  0  0  0  0
    1.3460    1.7984    0.6388 H   0  0  0  0  0  0  0  0  0  0  0  0
    2.2701    0.3148    0.3023 H   0  0  0  0  0  0  0  0  0  0  0  0
    2.2716    1.6253   -0.8714 H   0  0  0  0  0  0  0  0  0  0  0  0
   -0.1734    1.2721   -1.2873 H   0  0  0  0  0  0  0  0  0  0  0  0
   -0.1757   -0.0558   -0.0977 H   0  0  0  0  0  0  0  0  0  0  0  0
    2.4359   -2.2857   -2.7406 H   0  0  0  0  0  0  0  0  0  0  0  0
    1.2898   -3.6445   -2.8758 H   0  0  0  0  0  0  0  0  0  0  0  0
    3.2891   -4.0149   -4.3462 H   0  0  0  0  0  0  0  0  0  0  0  0
    1.8114   -3.8251   -5.3201 H   0  0  0  0  0  0  0  0  0  0  0  0
    2.9425   -2.4844   -5.1860 H   0  0  0  0  0  0  0  0  0  0  0  0
   -1.3259   -2.0942   -5.1107 H   0  0  0  0  0  0  0  0  0  0  0  0
   -3.1206   -2.2851   -6.7877 H   0  0  0  0  0  0  0  0  0  0  0  0
   -4.4693    1.6873   -5.7850 H   0  0  0  0  0  0  0  0  0  0  0  0
   -2.6714    1.8701   -4.1102 H   0  0  0  0  0  0  0  0  0  0  0  0
  1  2  1  0
  2  3  1  0
  3  4  1  0
  4  5  2  0
  4  6  1  0
  6  7  1  0
  7  8  1  0
  4  9  1  0
  9 10  1  0
 10 15  2  0
 10 11  1  0
 11 12  2  0
 12 13  1  0
 13 14  2  0
 14 15  1  0
 13 16  1  0
 16 17  2  0
 16 18  1  0
  1 19  1  0
  1 20  1  0
  1 21  1  0
  2 22  1  0
  2 23  1  0
  7 24  1  0
  7 25  1  0
  8 26  1  0
  8 27  1  0
  8 28  1  0
 11 29  1  0
 12 30  1  0
 14 31  1  0
 15 32  1  0
M  CHG  2  16   1  18  -1
M  END
>  <_TriposChargeType>  (608) 
USER_CHARGES

>  <solvdG>  (608) 
-6.74

>  <fdG>  (608) 
-9.21

>  <fname>  (608) 
mobley_9281946

>  <cname>  (608) 
 diethoxy-(4-nitrophenoxy)-thioxo-$l^{5}-phosphane

>  <dataset>  (608) 
FreeSolv

$$$$
1-bromohexane
     RDKit          3D

 20 19  0  0  0  0  0  0  0  0999 V2000
    0.1559    1.4867   -2.8241 C   0  0  0  0  0  0  0  0  0  0  0  0
   -0.5361    1.0930   -1.5289 C   0  0  0  0  0  0  0  0  0  0  0  0
    0.3489    0.1853   -0.6748 C   0  0  0  0  0  0  0  0  0  0  0  0
   -0.3512   -0.2087    0.6279 C   0  0  0  0  0  0  0  0  0  0  0  0
    0.5382   -1.1185    1.4821 C   0  0  0  0  0  0  0  0  0  0  0  0
   -0.1178   -1.5362    2.7890 C   0  0  0  0  0  0  0  0  0  0  0  0
    1.0540   -2.6885    3.8319 Br  0  0  0  0  0  0  0  0  0  0  0  0
   -0.4843    2.1363   -3.4293 H   0  0  0  0  0  0  0  0  0  0  0  0
    0.3908    0.5955   -3.4143 H   0  0  0  0  0  0  0  0  0  0  0  0
    1.0921    2.0173   -2.6229 H   0  0  0  0  0  0  0  0  0  0  0  0
   -0.7915    1.9995   -0.9677 H   0  0  0  0  0  0  0  0  0  0  0  0
   -1.4768    0.5815   -1.7646 H   0  0  0  0  0  0  0  0  0  0  0  0
    1.2898    0.7002   -0.4450 H   0  0  0  0  0  0  0  0  0  0  0  0
    0.6048   -0.7176   -1.2424 H   0  0  0  0  0  0  0  0  0  0  0  0
   -1.2896   -0.7268    0.3958 H   0  0  0  0  0  0  0  0  0  0  0  0
   -0.6120    0.6984    1.1843 H   0  0  0  0  0  0  0  0  0  0  0  0
    1.4992   -0.6259    1.6742 H   0  0  0  0  0  0  0  0  0  0  0  0
    0.7580   -2.0267    0.9072 H   0  0  0  0  0  0  0  0  0  0  0  0
   -0.3770   -0.6815    3.4192 H   0  0  0  0  0  0  0  0  0  0  0  0
   -1.0179   -2.1276    2.5993 H   0  0  0  0  0  0  0  0  0  0  0  0
  1  2  1  0
  2  3  1  0
  3  4  1  0
  4  5  1  0
  5  6  1  0
  6  7  1  0
  1  8  1  0
  1  9  1  0
  1 10  1  0
  2 11  1  0
  2 12  1  0
  3 13  1  0
  3 14  1  0
  4 15  1  0
  4 16  1  0
  5 17  1  0
  5 18  1  0
  6 19  1  0
  6 20  1  0
M  END
>  <_TriposChargeType>  (609) 
USER_CHARGES

>  <solvdG>  (609) 
0.18

>  <fdG>  (609) 
1.08

>  <fname>  (609) 
mobley_929676

>  <cname>  (609) 
 1-bromohexane

>  <dataset>  (609) 
FreeSolv

$$$$
octan-2-one
     RDKit          3D

 25 24  0  0  0  0  0  0  0  0999 V2000
   -5.2341    4.0322    0.5471 C   0  0  0  0  0  0  0  0  0  0  0  0
   -3.8026    4.0093    0.0356 C   0  0  0  0  0  0  0  0  0  0  0  0
   -3.5023    2.7214   -0.7309 C   0  0  0  0  0  0  0  0  0  0  0  0
   -2.0608    2.7023   -1.2439 C   0  0  0  0  0  0  0  0  0  0  0  0
   -1.7622    1.4114   -2.0114 C   0  0  0  0  0  0  0  0  0  0  0  0
   -0.3309    1.3615   -2.5367 C   0  0  0  0  0  0  0  0  0  0  0  0
   -0.0236    0.0878   -3.2983 C   0  0  0  0  0  0  0  0  0  0  0  0
   -0.8767   -0.7869   -3.4499 O   0  0  0  0  0  0  0  0  0  0  0  0
    1.3582   -0.0606   -3.8790 C   0  0  0  0  0  0  0  0  0  0  0  0
   -5.4402    4.9575    1.0944 H   0  0  0  0  0  0  0  0  0  0  0  0
   -5.4254    3.1872    1.2161 H   0  0  0  0  0  0  0  0  0  0  0  0
   -5.9369    3.9689   -0.2896 H   0  0  0  0  0  0  0  0  0  0  0  0
   -3.6393    4.8764   -0.6147 H   0  0  0  0  0  0  0  0  0  0  0  0
   -3.1159    4.1064    0.8844 H   0  0  0  0  0  0  0  0  0  0  0  0
   -3.6709    1.8569   -0.0772 H   0  0  0  0  0  0  0  0  0  0  0  0
   -4.1948    2.6274   -1.5764 H   0  0  0  0  0  0  0  0  0  0  0  0
   -1.3735    2.8005   -0.3954 H   0  0  0  0  0  0  0  0  0  0  0  0
   -1.8928    3.5660   -1.8987 H   0  0  0  0  0  0  0  0  0  0  0  0
   -1.9618    0.5466   -1.3681 H   0  0  0  0  0  0  0  0  0  0  0  0
   -2.4467    1.3354   -2.8652 H   0  0  0  0  0  0  0  0  0  0  0  0
   -0.1465    2.2063   -3.2101 H   0  0  0  0  0  0  0  0  0  0  0  0
    0.3842    1.4548   -1.7110 H   0  0  0  0  0  0  0  0  0  0  0  0
    2.0126   -0.5418   -3.1466 H   0  0  0  0  0  0  0  0  0  0  0  0
    1.3180   -0.6768   -4.7797 H   0  0  0  0  0  0  0  0  0  0  0  0
    1.7691    0.9247   -4.1124 H   0  0  0  0  0  0  0  0  0  0  0  0
  1  2  1  0
  2  3  1  0
  3  4  1  0
  4  5  1  0
  5  6  1  0
  6  7  1  0
  7  8  2  0
  7  9  1  0
  1 10  1  0
  1 11  1  0
  1 12  1  0
  2 13  1  0
  2 14  1  0
  3 15  1  0
  3 16  1  0
  4 17  1  0
  4 18  1  0
  5 19  1  0
  5 20  1  0
  6 21  1  0
  6 22  1  0
  9 23  1  0
  9 24  1  0
  9 25  1  0
M  END
>  <_TriposChargeType>  (610) 
USER_CHARGES

>  <solvdG>  (610) 
-2.88

>  <fdG>  (610) 
-2.76

>  <fname>  (610) 
mobley_9407874

>  <cname>  (610) 
 octan-2-one

>  <dataset>  (610) 
FreeSolv

$$$$
1-methylnaphthalene
     RDKit          3D

 21 22  0  0  0  0  0  0  0  0999 V2000
   -1.0094   -4.3873    1.0445 C   0  0  0  0  0  0  0  0  0  0  0  0
   -0.0479   -3.3542    0.5448 C   0  0  0  0  0  0  0  0  0  0  0  0
   -0.4966   -2.0341    0.4940 C   0  0  0  0  0  0  0  0  0  0  0  0
    0.3500   -1.0275    0.0392 C   0  0  0  0  0  0  0  0  0  0  0  0
    1.6484   -1.3369   -0.3665 C   0  0  0  0  0  0  0  0  0  0  0  0
    2.1168   -2.6602   -0.3222 C   0  0  0  0  0  0  0  0  0  0  0  0
    1.2560   -3.6839    0.1403 C   0  0  0  0  0  0  0  0  0  0  0  0
    1.7243   -5.0072    0.1848 C   0  0  0  0  0  0  0  0  0  0  0  0
    3.0228   -5.3167   -0.2210 C   0  0  0  0  0  0  0  0  0  0  0  0
    3.8693   -4.3100   -0.6758 C   0  0  0  0  0  0  0  0  0  0  0  0
    3.4207   -2.9899   -0.7267 C   0  0  0  0  0  0  0  0  0  0  0  0
   -0.9138   -4.4942    2.1294 H   0  0  0  0  0  0  0  0  0  0  0  0
   -2.0412   -4.1091    0.8057 H   0  0  0  0  0  0  0  0  0  0  0  0
   -0.8190   -5.3582    0.5749 H   0  0  0  0  0  0  0  0  0  0  0  0
   -1.5058   -1.7800    0.8075 H   0  0  0  0  0  0  0  0  0  0  0  0
    0.0006   -0.0000   -0.0016 H   0  0  0  0  0  0  0  0  0  0  0  0
    2.2930   -0.5342   -0.7188 H   0  0  0  0  0  0  0  0  0  0  0  0
    1.0938   -5.8214    0.5342 H   0  0  0  0  0  0  0  0  0  0  0  0
    3.3733   -6.3440   -0.1817 H   0  0  0  0  0  0  0  0  0  0  0  0
    4.8798   -4.5519   -0.9922 H   0  0  0  0  0  0  0  0  0  0  0  0
    4.0999   -2.2195   -1.0857 H   0  0  0  0  0  0  0  0  0  0  0  0
  1  2  1  0
  2  7  2  0
  2  3  1  0
  3  4  2  0
  4  5  1  0
  5  6  2  0
  6 11  1  0
  6  7  1  0
  7  8  1  0
  8  9  2  0
  9 10  1  0
 10 11  2  0
  1 12  1  0
  1 13  1  0
  1 14  1  0
  3 15  1  0
  4 16  1  0
  5 17  1  0
  8 18  1  0
  9 19  1  0
 10 20  1  0
 11 21  1  0
M  END
>  <_TriposChargeType>  (611) 
USER_CHARGES

>  <solvdG>  (611) 
-2.44

>  <fdG>  (611) 
-3.21

>  <fname>  (611) 
mobley_9414831

>  <cname>  (611) 
 1-methylnaphthalene

>  <dataset>  (611) 
FreeSolv

$$$$
2-bromopropane
     RDKit          3D

 11 10  0  0  0  0  0  0  0  0999 V2000
   -0.2496   -0.5656   -1.1352 C   0  0  0  0  0  0  0  0  0  0  0  0
   -0.1530   -0.4084    0.3724 C   0  0  0  0  0  0  0  0  0  0  0  0
    0.2101    1.0085    0.7808 C   0  0  0  0  0  0  0  0  0  0  0  0
    1.2148   -1.6327    1.0501 Br  0  0  0  0  0  0  0  0  0  0  0  0
   -0.5121   -1.5932   -1.4098 H   0  0  0  0  0  0  0  0  0  0  0  0
   -1.0216    0.0954   -1.5429 H   0  0  0  0  0  0  0  0  0  0  0  0
    0.6975   -0.3220   -1.6295 H   0  0  0  0  0  0  0  0  0  0  0  0
   -1.0890   -0.7156    0.8493 H   0  0  0  0  0  0  0  0  0  0  0  0
    0.2749    1.1016    1.8705 H   0  0  0  0  0  0  0  0  0  0  0  0
   -0.5480    1.7169    0.4305 H   0  0  0  0  0  0  0  0  0  0  0  0
    1.1759    1.3152    0.3637 H   0  0  0  0  0  0  0  0  0  0  0  0
  1  2  1  0
  2  3  1  0
  2  4  1  0
  1  5  1  0
  1  6  1  0
  1  7  1  0
  2  8  1  0
  3  9  1  0
  3 10  1  0
  3 11  1  0
M  END
>  <_TriposChargeType>  (612) 
USER_CHARGES

>  <solvdG>  (612) 
-0.48

>  <fdG>  (612) 
0.45

>  <fname>  (612) 
mobley_9434451

>  <cname>  (612) 
 2-bromopropane

>  <dataset>  (612) 
FreeSolv

$$$$
diethoxy-(ethylsulfanylmethylsulfanyl)-thioxo-$l^{5}-phosphane
     RDKit          3D

 30 29  0  0  0  0  0  0  0  0999 V2000
   -2.0246    2.2461   -2.1268 C   0  0  0  0  0  0  0  0  0  0  0  0
   -0.6380    2.2765   -1.5200 C   0  0  0  0  0  0  0  0  0  0  0  0
   -0.6840    1.6834   -0.2332 O   0  0  0  0  0  0  0  0  0  0  0  0
    0.6724    1.5724    0.6709 P   0  0  0  0  0  5  0  0  0  0  0  0
    1.4880    3.3084    1.0816 S   0  0  0  0  0  0  0  0  0  0  0  0
    0.0608    0.8350    1.9966 O   0  0  0  0  0  0  0  0  0  0  0  0
   -0.9707    1.4464    2.7536 C   0  0  0  0  0  0  0  0  0  0  0  0
   -1.3351    0.5432    3.9132 C   0  0  0  0  0  0  0  0  0  0  0  0
    1.9068    0.0994   -0.2400 S   0  0  0  0  0  0  0  0  0  0  0  0
    0.9254   -1.4222   -0.2152 C   0  0  0  0  0  0  0  0  0  0  0  0
    1.8394   -2.7968   -0.9634 S   0  0  0  0  0  0  0  0  0  0  0  0
    0.5908   -4.0896   -0.7649 C   0  0  0  0  0  0  0  0  0  0  0  0
    1.0910   -5.4109   -1.3222 C   0  0  0  0  0  0  0  0  0  0  0  0
   -2.0246    2.6974   -3.1229 H   0  0  0  0  0  0  0  0  0  0  0  0
   -2.3893    1.2167   -2.2050 H   0  0  0  0  0  0  0  0  0  0  0  0
   -2.7348    2.7881   -1.4935 H   0  0  0  0  0  0  0  0  0  0  0  0
   -0.2852    3.3073   -1.4206 H   0  0  0  0  0  0  0  0  0  0  0  0
    0.0656    1.7152   -2.1420 H   0  0  0  0  0  0  0  0  0  0  0  0
   -0.6148    2.4146    3.1198 H   0  0  0  0  0  0  0  0  0  0  0  0
   -1.8382    1.6065    2.1056 H   0  0  0  0  0  0  0  0  0  0  0  0
   -2.1302    0.9862    4.5194 H   0  0  0  0  0  0  0  0  0  0  0  0
   -1.6700   -0.4341    3.5503 H   0  0  0  0  0  0  0  0  0  0  0  0
   -0.4630    0.3640    4.5509 H   0  0  0  0  0  0  0  0  0  0  0  0
   -0.0004   -1.2527   -0.7715 H   0  0  0  0  0  0  0  0  0  0  0  0
    0.6807   -1.6661    0.8221 H   0  0  0  0  0  0  0  0  0  0  0  0
    0.3529   -4.1968    0.2996 H   0  0  0  0  0  0  0  0  0  0  0  0
   -0.3247   -3.7854   -1.2848 H   0  0  0  0  0  0  0  0  0  0  0  0
    0.3430   -6.2027   -1.2077 H   0  0  0  0  0  0  0  0  0  0  0  0
    1.3493   -5.3263   -2.3832 H   0  0  0  0  0  0  0  0  0  0  0  0
    1.9921   -5.7277   -0.7865 H   0  0  0  0  0  0  0  0  0  0  0  0
  1  2  1  0
  2  3  1  0
  3  4  1  0
  4  5  2  0
  4  6  1  0
  6  7  1  0
  7  8  1  0
  4  9  1  0
  9 10  1  0
 10 11  1  0
 11 12  1  0
 12 13  1  0
  1 14  1  0
  1 15  1  0
  1 16  1  0
  2 17  1  0
  2 18  1  0
  7 19  1  0
  7 20  1  0
  8 21  1  0
  8 22  1  0
  8 23  1  0
 10 24  1  0
 10 25  1  0
 12 26  1  0
 12 27  1  0
 13 28  1  0
 13 29  1  0
 13 30  1  0
M  END
>  <_TriposChargeType>  (613) 
USER_CHARGES

>  <solvdG>  (613) 
-4.37

>  <fdG>  (613) 
-6.43

>  <fname>  (613) 
mobley_9460824

>  <cname>  (613) 
 diethoxy-(ethylsulfanylmethylsulfanyl)-thioxo-$l^{5}-phosphane

>  <dataset>  (613) 
FreeSolv

$$$$
o-xylene
     RDKit          3D

 18 18  0  0  0  0  0  0  0  0999 V2000
    1.9532   -1.0258   -1.6043 C   0  0  0  0  0  0  0  0  0  0  0  0
    1.8851   -1.0363   -0.1124 C   0  0  0  0  0  0  0  0  0  0  0  0
    2.9210   -1.6309    0.6081 C   0  0  0  0  0  0  0  0  0  0  0  0
    2.8783   -1.6520    2.0022 C   0  0  0  0  0  0  0  0  0  0  0  0
    1.7997   -1.0786    2.6757 C   0  0  0  0  0  0  0  0  0  0  0  0
    0.7638   -0.4841    1.9551 C   0  0  0  0  0  0  0  0  0  0  0  0
    0.8066   -0.4630    0.5610 C   0  0  0  0  0  0  0  0  0  0  0  0
   -0.3140    0.1791   -0.1889 C   0  0  0  0  0  0  0  0  0  0  0  0
    2.4668   -0.1232   -1.9493 H   0  0  0  0  0  0  0  0  0  0  0  0
    2.4911   -1.9036   -1.9773 H   0  0  0  0  0  0  0  0  0  0  0  0
    0.9495   -1.0512   -2.0416 H   0  0  0  0  0  0  0  0  0  0  0  0
    3.7658   -2.0800    0.0928 H   0  0  0  0  0  0  0  0  0  0  0  0
    3.6853   -2.1141    2.5633 H   0  0  0  0  0  0  0  0  0  0  0  0
    1.7666   -1.0951    3.7611 H   0  0  0  0  0  0  0  0  0  0  0  0
   -0.0720   -0.0399    2.4893 H   0  0  0  0  0  0  0  0  0  0  0  0
   -0.1027    1.2424   -0.3508 H   0  0  0  0  0  0  0  0  0  0  0  0
   -0.4641   -0.3000   -1.1643 H   0  0  0  0  0  0  0  0  0  0  0  0
   -1.2602    0.0901    0.3594 H   0  0  0  0  0  0  0  0  0  0  0  0
  1  2  1  0
  2  7  2  0
  2  3  1  0
  3  4  2  0
  4  5  1  0
  5  6  2  0
  6  7  1  0
  7  8  1  0
  1  9  1  0
  1 10  1  0
  1 11  1  0
  3 12  1  0
  4 13  1  0
  5 14  1  0
  6 15  1  0
  8 16  1  0
  8 17  1  0
  8 18  1  0
M  END
>  <_TriposChargeType>  (614) 
USER_CHARGES

>  <solvdG>  (614) 
-0.9

>  <fdG>  (614) 
-0.85

>  <fname>  (614) 
mobley_9478823

>  <cname>  (614) 
 o-xylene

>  <dataset>  (614) 
FreeSolv

$$$$
2,5-dimethylpyridine
     RDKit          3D

 17 17  0  0  0  0  0  0  0  0999 V2000
    2.8858   -0.2682    3.6506 C   0  0  0  0  0  0  0  0  0  0  0  0
    1.6520   -0.6227    2.8997 C   0  0  0  0  0  0  0  0  0  0  0  0
    1.3879   -0.0684    1.6522 C   0  0  0  0  0  0  0  0  0  0  0  0
    0.2265   -0.4197    0.9733 C   0  0  0  0  0  0  0  0  0  0  0  0
   -0.6317   -1.3224    1.5803 C   0  0  0  0  0  0  0  0  0  0  0  0
   -0.4092   -1.8816    2.7908 N   0  0  0  0  0  0  0  0  0  0  0  0
    0.7299   -1.5161    3.4206 C   0  0  0  0  0  0  0  0  0  0  0  0
   -1.8873   -1.7227    0.8799 C   0  0  0  0  0  0  0  0  0  0  0  0
    3.6948   -0.9567    3.3880 H   0  0  0  0  0  0  0  0  0  0  0  0
    3.2028    0.7545    3.4213 H   0  0  0  0  0  0  0  0  0  0  0  0
    2.7141   -0.3193    4.7310 H   0  0  0  0  0  0  0  0  0  0  0  0
    2.0811    0.6368    1.2013 H   0  0  0  0  0  0  0  0  0  0  0  0
    0.0083    0.0062   -0.0000 H   0  0  0  0  0  0  0  0  0  0  0  0
    0.8833   -1.9811    4.3897 H   0  0  0  0  0  0  0  0  0  0  0  0
   -1.7084   -2.6026    0.2505 H   0  0  0  0  0  0  0  0  0  0  0  0
   -2.6831   -1.9624    1.5965 H   0  0  0  0  0  0  0  0  0  0  0  0
   -2.2644   -0.9106    0.2452 H   0  0  0  0  0  0  0  0  0  0  0  0
  1  2  1  0
  2  7  2  0
  2  3  1  0
  3  4  2  0
  4  5  1  0
  5  6  2  0
  6  7  1  0
  5  8  1  0
  1  9  1  0
  1 10  1  0
  1 11  1  0
  3 12  1  0
  4 13  1  0
  7 14  1  0
  8 15  1  0
  8 16  1  0
  8 17  1  0
M  END
>  <_TriposChargeType>  (615) 
USER_CHARGES

>  <solvdG>  (615) 
-4.72

>  <fdG>  (615) 
-3.17

>  <fname>  (615) 
mobley_9507933

>  <cname>  (615) 
 2,5-dimethylpyridine

>  <dataset>  (615) 
FreeSolv

$$$$
1,2,3,4-tetrachloro-5-phenyl-benzene
     RDKit          3D

 22 23  0  0  0  0  0  0  0  0999 V2000
    1.8851   -1.0363   -0.1124 C   0  0  0  0  0  0  0  0  0  0  0  0
    2.9210   -1.6309    0.6081 C   0  0  0  0  0  0  0  0  0  0  0  0
    2.8783   -1.6520    2.0022 C   0  0  0  0  0  0  0  0  0  0  0  0
    1.7997   -1.0786    2.6757 C   0  0  0  0  0  0  0  0  0  0  0  0
    0.7638   -0.4841    1.9551 C   0  0  0  0  0  0  0  0  0  0  0  0
    0.8066   -0.4630    0.5610 C   0  0  0  0  0  0  0  0  0  0  0  0
    1.7549   -1.1005    4.1216 C   0  0  0  0  0  0  0  0  0  0  0  0
    1.1388   -2.1911    4.7355 C   0  0  0  0  0  0  0  0  0  0  0  0
    1.0693   -2.2606    6.1269 C   0  0  0  0  0  0  0  0  0  0  0  0
    1.6158   -1.2396    6.9044 C   0  0  0  0  0  0  0  0  0  0  0  0
    2.2318   -0.1491    6.2905 C   0  0  0  0  0  0  0  0  0  0  0  0
    2.3014   -0.0795    4.8991 C   0  0  0  0  0  0  0  0  0  0  0  0
    3.0623    1.2750    4.1118 Cl  0  0  0  0  0  0  0  0  0  0  0  0
    2.9143    1.1275    7.2598 Cl  0  0  0  0  0  0  0  0  0  0  0  0
    1.5210   -1.3401    8.6397 Cl  0  0  0  0  0  0  0  0  0  0  0  0
    0.2916   -3.6463    6.8138 Cl  0  0  0  0  0  0  0  0  0  0  0  0
    1.9174   -1.0212   -1.1979 H   0  0  0  0  0  0  0  0  0  0  0  0
    3.7605   -2.0787    0.0844 H   0  0  0  0  0  0  0  0  0  0  0  0
    3.6927   -2.1196    2.5504 H   0  0  0  0  0  0  0  0  0  0  0  0
   -0.0840   -0.0332    2.4655 H   0  0  0  0  0  0  0  0  0  0  0  0
   -0.0009   -0.0015    0.0001 H   0  0  0  0  0  0  0  0  0  0  0  0
    0.7147   -2.9894    4.1287 H   0  0  0  0  0  0  0  0  0  0  0  0
  1  6  2  0
  1  2  1  0
  2  3  2  0
  3  4  1  0
  4  5  2  0
  5  6  1  0
  4  7  1  0
  7 12  1  0
  7  8  2  0
  8  9  1  0
  9 10  2  0
 10 11  1  0
 11 12  2  0
 12 13  1  0
 11 14  1  0
 10 15  1  0
  9 16  1  0
  1 17  1  0
  2 18  1  0
  3 19  1  0
  5 20  1  0
  6 21  1  0
  8 22  1  0
M  END
>  <_TriposChargeType>  (616) 
USER_CHARGES

>  <solvdG>  (616) 
-3.48

>  <fdG>  (616) 
-1.31

>  <fname>  (616) 
mobley_9510785

>  <cname>  (616) 
 1,2,3,4-tetrachloro-5-phenyl-benzene

>  <dataset>  (616) 
FreeSolv

$$$$
piperazine
     RDKit          3D

 16 16  0  0  0  0  0  0  0  0999 V2000
   -0.8449   -1.0558   -0.4431 C   0  0  0  0  0  0  0  0  0  0  0  0
   -0.8416    0.3213   -1.1066 C   0  0  0  0  0  0  0  0  0  0  0  0
   -0.4512    1.3643   -0.1581 N   0  0  0  0  0  0  0  0  0  0  0  0
    0.8459    1.0594    0.4455 C   0  0  0  0  0  0  0  0  0  0  0  0
    0.8377   -0.3196    1.1048 C   0  0  0  0  0  0  0  0  0  0  0  0
    0.4541   -1.3696    0.1575 N   0  0  0  0  0  0  0  0  0  0  0  0
   -1.0847   -1.8212   -1.1896 H   0  0  0  0  0  0  0  0  0  0  0  0
   -1.6276   -1.1095    0.3238 H   0  0  0  0  0  0  0  0  0  0  0  0
   -0.1640    0.3268   -1.9698 H   0  0  0  0  0  0  0  0  0  0  0  0
   -1.8456    0.5434   -1.4843 H   0  0  0  0  0  0  0  0  0  0  0  0
   -0.3997    2.2610   -0.6404 H   0  0  0  0  0  0  0  0  0  0  0  0
    1.6353    1.1136   -0.3148 H   0  0  0  0  0  0  0  0  0  0  0  0
    1.0733    1.8200    1.2001 H   0  0  0  0  0  0  0  0  0  0  0  0
    1.8358   -0.5435    1.4973 H   0  0  0  0  0  0  0  0  0  0  0  0
    0.1538   -0.3300    1.9626 H   0  0  0  0  0  0  0  0  0  0  0  0
    0.3750   -2.2525    0.6633 H   0  0  0  0  0  0  0  0  0  0  0  0
  1  6  1  0
  1  2  1  0
  2  3  1  0
  3  4  1  0
  4  5  1  0
  5  6  1  0
  1  7  1  0
  1  8  1  0
  2  9  1  0
  2 10  1  0
  3 11  1  0
  4 12  1  0
  4 13  1  0
  5 14  1  0
  5 15  1  0
  6 16  1  0
M  END
>  <_TriposChargeType>  (617) 
USER_CHARGES

>  <solvdG>  (617) 
-7.4

>  <fdG>  (617) 
-8.48

>  <fname>  (617) 
mobley_951560

>  <cname>  (617) 
 piperazine

>  <dataset>  (617) 
FreeSolv

$$$$
(2R,3R,4S,5S,6R)-6-(hydroxymethyl)tetrahydropyran-2,3,4,5-tetrol
     RDKit          3D

 24 24  0  0  0  0  0  0  0  0999 V2000
    0.7245    1.2766   -2.3060 C   0  0  0  0  0  0  0  0  0  0  0  0
   -0.0643   -0.0218   -2.1696 C   0  0  2  0  0  0  0  0  0  0  0  0
   -0.8141   -0.0425   -2.9717 H   0  0  0  0  0  0  0  0  0  0  0  0
   -0.7391   -0.1332   -0.8004 C   0  0  2  0  0  0  0  0  0  0  0  0
   -0.0002   -0.0005    0.0002 H   0  0  0  0  0  0  0  0  0  0  0  0
   -1.4240   -1.4908   -0.6420 C   0  0  1  0  0  0  0  0  0  0  0  0
   -2.3430   -1.5282   -1.2403 H   0  0  0  0  0  0  0  0  0  0  0  0
   -0.4804   -2.6337   -1.0165 C   0  0  2  0  0  0  0  0  0  0  0  0
    0.2643   -2.7784   -0.2238 H   0  0  0  0  0  0  0  0  0  0  0  0
    0.2035   -2.3731   -2.3586 C   0  0  1  0  0  0  0  0  0  0  0  0
   -0.5185   -2.4255   -3.1834 H   0  0  0  0  0  0  0  0  0  0  0  0
    0.8515   -1.1032   -2.3511 O   0  0  0  0  0  0  0  0  0  0  0  0
    1.1658   -3.4061   -2.5664 O   0  0  0  0  0  0  0  0  0  0  0  0
   -1.2431   -3.8371   -1.0963 O   0  0  0  0  0  0  0  0  0  0  0  0
   -1.8238   -1.6378    0.7213 O   0  0  0  0  0  0  0  0  0  0  0  0
   -1.7092    0.9021   -0.6673 O   0  0  0  0  0  0  0  0  0  0  0  0
    1.3540    1.3038   -3.5782 O   0  0  0  0  0  0  0  0  0  0  0  0
    1.4938    1.3415   -1.5307 H   0  0  0  0  0  0  0  0  0  0  0  0
    0.0588    2.1409   -2.2236 H   0  0  0  0  0  0  0  0  0  0  0  0
    1.5861   -3.2219   -3.4202 H   0  0  0  0  0  0  0  0  0  0  0  0
   -0.6209   -4.5412   -1.3343 H   0  0  0  0  0  0  0  0  0  0  0  0
   -2.2526   -2.5041    0.7882 H   0  0  0  0  0  0  0  0  0  0  0  0
   -2.1098    0.7944    0.2093 H   0  0  0  0  0  0  0  0  0  0  0  0
    1.8454    2.1400   -3.6316 H   0  0  0  0  0  0  0  0  0  0  0  0
  1  2  1  0
  2  3  1  6
  2 12  1  0
  2  4  1  0
  4  5  1  1
  4  6  1  0
  6  7  1  6
  6  8  1  0
  8  9  1  1
  8 10  1  0
 10 11  1  6
 10 12  1  0
 10 13  1  0
  8 14  1  0
  6 15  1  0
  4 16  1  0
  1 17  1  0
  1 18  1  0
  1 19  1  0
 13 20  1  0
 14 21  1  0
 15 22  1  0
 16 23  1  0
 17 24  1  0
M  END
>  <_TriposChargeType>  (618) 
USER_CHARGES

>  <solvdG>  (618) 
-25.47

>  <fdG>  (618) 
-18.09

>  <fname>  (618) 
mobley_9534740

>  <cname>  (618) 
 (2R,3R,4S,5S,6R)-6-(hydroxymethyl)tetrahydropyran-2,3,4,5-tetrol

>  <dataset>  (618) 
FreeSolv

$$$$
5-chloro-1H-pyrimidine-2,4-dione
     RDKit          3D

 12 12  0  0  0  0  0  0  0  0999 V2000
    0.6683    1.3560   -0.0606 C   0  0  0  0  0  0  0  0  0  0  0  0
   -0.2942    0.9374    0.7650 C   0  0  0  0  0  0  0  0  0  0  0  0
   -0.8091   -0.4513    0.6456 C   0  0  0  0  0  0  0  0  0  0  0  0
   -1.6923   -0.8865    1.3791 O   0  0  0  0  0  0  0  0  0  0  0  0
   -0.2056   -1.2004   -0.3593 N   0  0  0  0  0  0  0  0  0  0  0  0
    0.8025   -0.7659   -1.2254 C   0  0  0  0  0  0  0  0  0  0  0  0
    1.2905   -1.4901   -2.0938 O   0  0  0  0  0  0  0  0  0  0  0  0
    1.2054    0.5461   -1.0239 N   0  0  0  0  0  0  0  0  0  0  0  0
   -0.9656    1.9548    1.9733 Cl  0  0  0  0  0  0  0  0  0  0  0  0
    1.0829    2.3565   -0.0200 H   0  0  0  0  0  0  0  0  0  0  0  0
   -0.5290   -2.1567   -0.4754 H   0  0  0  0  0  0  0  0  0  0  0  0
    1.9346    0.9331   -1.6155 H   0  0  0  0  0  0  0  0  0  0  0  0
  1  8  1  0
  1  2  2  0
  2  3  1  0
  3  4  2  0
  3  5  1  0
  5  6  1  0
  6  7  2  0
  6  8  1  0
  2  9  1  0
  1 10  1  0
  5 11  1  0
  8 12  1  0
M  END
>  <_TriposChargeType>  (619) 
USER_CHARGES

>  <solvdG>  (619) 
-17.74

>  <fdG>  (619) 
-16.61

>  <fname>  (619) 
mobley_9557440

>  <cname>  (619) 
 5-chlorouracil

>  <dataset>  (619) 
FreeSolv

$$$$
9H-fluorene
     RDKit          3D

 23 25  0  0  0  0  0  0  0  0999 V2000
   -4.9623   -4.0685    3.8307 C   0  0  0  0  0  0  0  0  0  0  0  0
   -4.9953   -2.6694    3.7012 C   0  0  0  0  0  0  0  0  0  0  0  0
   -4.0207   -1.9924    2.9616 C   0  0  0  0  0  0  0  0  0  0  0  0
   -3.0204   -2.7368    2.3589 C   0  0  0  0  0  0  0  0  0  0  0  0
   -2.9927   -4.1432    2.4926 C   0  0  0  0  0  0  0  0  0  0  0  0
   -3.9541   -4.8192    3.2231 C   0  0  0  0  0  0  0  0  0  0  0  0
   -1.8090   -4.7234    1.7471 C   0  0  0  0  0  0  0  0  0  0  0  0
   -1.1657   -3.4785    1.1727 C   0  0  0  0  0  0  0  0  0  0  0  0
   -1.8953   -2.3274    1.5461 C   0  0  0  0  0  0  0  0  0  0  0  0
   -1.4873   -1.0707    1.1313 C   0  0  0  0  0  0  0  0  0  0  0  0
   -0.3400   -0.9756    0.3377 C   0  0  0  0  0  0  0  0  0  0  0  0
    0.3814   -2.1243   -0.0305 C   0  0  0  0  0  0  0  0  0  0  0  0
   -0.0296   -3.3912    0.3874 C   0  0  0  0  0  0  0  0  0  0  0  0
   -5.7317   -4.5705    4.4113 H   0  0  0  0  0  0  0  0  0  0  0  0
   -5.7900   -2.1067    4.1841 H   0  0  0  0  0  0  0  0  0  0  0  0
   -4.0588   -0.9119    2.8720 H   0  0  0  0  0  0  0  0  0  0  0  0
   -3.9295   -5.8986    3.3243 H   0  0  0  0  0  0  0  0  0  0  0  0
   -1.1268   -5.2289    2.4367 H   0  0  0  0  0  0  0  0  0  0  0  0
   -2.1436   -5.3909    0.9478 H   0  0  0  0  0  0  0  0  0  0  0  0
   -2.0333   -0.1748    1.4077 H   0  0  0  0  0  0  0  0  0  0  0  0
   -0.0002   -0.0000   -0.0000 H   0  0  0  0  0  0  0  0  0  0  0  0
    1.2701   -2.0229   -0.6477 H   0  0  0  0  0  0  0  0  0  0  0  0
    0.5284   -4.2765    0.1031 H   0  0  0  0  0  0  0  0  0  0  0  0
  1  6  2  0
  1  2  1  0
  2  3  2  0
  3  4  1  0
  4  9  1  0
  4  5  2  0
  5  6  1  0
  5  7  1  0
  7  8  1  0
  8 13  1  0
  8  9  2  0
  9 10  1  0
 10 11  2  0
 11 12  1  0
 12 13  2  0
  1 14  1  0
  2 15  1  0
  3 16  1  0
  6 17  1  0
  7 18  1  0
  7 19  1  0
 10 20  1  0
 11 21  1  0
 12 22  1  0
 13 23  1  0
M  END
>  <_TriposChargeType>  (620) 
USER_CHARGES

>  <solvdG>  (620) 
-3.35

>  <fdG>  (620) 
-4.27

>  <fname>  (620) 
mobley_9565165

>  <cname>  (620) 
 9H-fluorene

>  <dataset>  (620) 
FreeSolv

$$$$
(1R,2S,8R,9S)-1,9,10,11,12,12-hexachloro-4,6-dioxa-5-thiatricyclo[7.2.1.0^{2,8}]dodec-10-ene- 5-oxide
     RDKit          3D

 25 27  0  0  0  0  0  0  0  0999 V2000
    1.2934    0.6380    1.5386 C   0  0  0  0  0  0  0  0  0  0  0  0
    0.3969    0.9624    0.3399 C   0  0  2  0  0  0  0  0  0  0  0  0
    0.2092    2.0451    0.3800 H   0  0  0  0  0  0  0  0  0  0  0  0
   -1.0212    0.2583    0.2993 C   0  0  2  0  0  0  0  0  0  0  0  0
   -1.7718    1.0616    0.3231 H   0  0  0  0  0  0  0  0  0  0  0  0
   -1.3593   -0.6786    1.4627 C   0  0  0  0  0  0  0  0  0  0  0  0
   -1.4754    0.0720    2.6715 O   0  0  0  0  0  0  0  0  0  0  0  0
   -0.1563    0.1073    3.5969 S   0  0  0  0  0  4  0  0  0  0  0  0
   -0.5306    0.7872    4.8805 O   0  0  0  0  0  0  0  0  0  0  0  0
    0.7108    1.1568    2.7343 O   0  0  0  0  0  0  0  0  0  0  0  0
   -1.0167   -0.4123   -1.1212 C   0  0  2  0  0  0  0  0  0  0  0  0
    0.0326   -1.5072   -1.1044 C   0  0  0  0  0  0  0  0  0  0  0  0
    1.2310   -0.9121   -1.0702 C   0  0  0  0  0  0  0  0  0  0  0  0
    0.9931    0.5858   -1.0638 C   0  0  1  0  0  0  0  0  0  0  0  0
   -0.2622    0.6428   -1.9901 C   0  0  0  0  0  0  0  0  0  0  0  0
    0.0432    0.1256   -3.6923 Cl  0  0  0  0  0  0  0  0  0  0  0  0
   -1.0561    2.2470   -2.0866 Cl  0  0  0  0  0  0  0  0  0  0  0  0
    2.3335    1.5930   -1.5762 Cl  0  0  0  0  0  0  0  0  0  0  0  0
    2.7573   -1.6420   -1.0067 Cl  0  0  0  0  0  0  0  0  0  0  0  0
   -0.3102   -3.1652   -1.0946 Cl  0  0  0  0  0  0  0  0  0  0  0  0
   -2.6038   -0.8587   -1.7175 Cl  0  0  0  0  0  0  0  0  0  0  0  0
    2.2566    1.1464    1.4203 H   0  0  0  0  0  0  0  0  0  0  0  0
    1.5184   -0.4311    1.6328 H   0  0  0  0  0  0  0  0  0  0  0  0
   -2.3400   -1.1347    1.2884 H   0  0  0  0  0  0  0  0  0  0  0  0
   -0.6485   -1.5065    1.5707 H   0  0  0  0  0  0  0  0  0  0  0  0
  1 10  1  0
  1  2  1  0
  2  3  1  6
  2 14  1  0
  2  4  1  0
  4  5  1  6
  4  6  1  0
  6  7  1  0
  8  7  1  6
  8  9  2  0
  8 10  1  0
  4 11  1  0
 11 15  1  0
 11 12  1  0
 12 13  2  0
 13 14  1  0
 14 15  1  0
 15 16  1  0
 15 17  1  0
 14 18  1  6
 13 19  1  0
 12 20  1  0
 11 21  1  6
  1 22  1  0
  1 23  1  0
  6 24  1  0
  6 25  1  0
M  END
>  <_TriposChargeType>  (621) 
USER_CHARGES

>  <solvdG>  (621) 
-4.23

>  <fdG>  (621) 
-9.79

>  <fname>  (621) 
mobley_9571888

>  <cname>  (621) 
 endosulfan alpha

>  <dataset>  (621) 
FreeSolv

$$$$
decan-2-one
     RDKit          3D

 31 30  0  0  0  0  0  0  0  0999 V2000
   -4.0262   -8.6527    6.5587 C   0  0  0  0  0  0  0  0  0  0  0  0
   -3.7977   -7.9690    5.2203 C   0  0  0  0  0  0  0  0  0  0  0  0
   -2.8518   -6.7759    5.3549 C   0  0  0  0  0  0  0  0  0  0  0  0
   -2.6247   -6.0911    4.0061 C   0  0  0  0  0  0  0  0  0  0  0  0
   -1.6781   -4.8972    4.1406 C   0  0  0  0  0  0  0  0  0  0  0  0
   -1.4511   -4.2125    2.7917 C   0  0  0  0  0  0  0  0  0  0  0  0
   -0.5048   -3.0188    2.9258 C   0  0  0  0  0  0  0  0  0  0  0  0
   -0.2783   -2.3354    1.5793 C   0  0  0  0  0  0  0  0  0  0  0  0
    0.6585   -1.1447    1.6810 C   0  0  0  0  0  0  0  0  0  0  0  0
    1.1692   -0.7854    2.7407 O   0  0  0  0  0  0  0  0  0  0  0  0
    0.9364   -0.4082    0.3964 C   0  0  0  0  0  0  0  0  0  0  0  0
   -4.7044   -9.5054    6.4530 H   0  0  0  0  0  0  0  0  0  0  0  0
   -4.4710   -7.9512    7.2715 H   0  0  0  0  0  0  0  0  0  0  0  0
   -3.0831   -9.0139    6.9810 H   0  0  0  0  0  0  0  0  0  0  0  0
   -4.7614   -7.6366    4.8170 H   0  0  0  0  0  0  0  0  0  0  0  0
   -3.3826   -8.6954    4.5118 H   0  0  0  0  0  0  0  0  0  0  0  0
   -1.8908   -7.1131    5.7623 H   0  0  0  0  0  0  0  0  0  0  0  0
   -3.2695   -6.0544    6.0677 H   0  0  0  0  0  0  0  0  0  0  0  0
   -2.2069   -6.8127    3.2935 H   0  0  0  0  0  0  0  0  0  0  0  0
   -3.5857   -5.7538    3.5989 H   0  0  0  0  0  0  0  0  0  0  0  0
   -0.7171   -5.2344    4.5477 H   0  0  0  0  0  0  0  0  0  0  0  0
   -2.0959   -4.1756    4.8532 H   0  0  0  0  0  0  0  0  0  0  0  0
   -2.4122   -3.8753    2.3846 H   0  0  0  0  0  0  0  0  0  0  0  0
   -1.0334   -4.9342    2.0792 H   0  0  0  0  0  0  0  0  0  0  0  0
   -0.9193   -2.2973    3.6409 H   0  0  0  0  0  0  0  0  0  0  0  0
    0.4561   -3.3533    3.3362 H   0  0  0  0  0  0  0  0  0  0  0  0
   -1.2328   -1.9790    1.1764 H   0  0  0  0  0  0  0  0  0  0  0  0
    0.1574   -3.0465    0.8686 H   0  0  0  0  0  0  0  0  0  0  0  0
    0.2000    0.3882    0.2638 H   0  0  0  0  0  0  0  0  0  0  0  0
    1.9450    0.0107    0.4262 H   0  0  0  0  0  0  0  0  0  0  0  0
    0.8648   -1.0989   -0.4484 H   0  0  0  0  0  0  0  0  0  0  0  0
  1  2  1  0
  2  3  1  0
  3  4  1  0
  4  5  1  0
  5  6  1  0
  6  7  1  0
  7  8  1  0
  8  9  1  0
  9 10  2  0
  9 11  1  0
  1 12  1  0
  1 13  1  0
  1 14  1  0
  2 15  1  0
  2 16  1  0
  3 17  1  0
  3 18  1  0
  4 19  1  0
  4 20  1  0
  5 21  1  0
  5 22  1  0
  6 23  1  0
  6 24  1  0
  7 25  1  0
  7 26  1  0
  8 27  1  0
  8 28  1  0
 11 29  1  0
 11 30  1  0
 11 31  1  0
M  END
>  <_TriposChargeType>  (622) 
USER_CHARGES

>  <solvdG>  (622) 
-2.34

>  <fdG>  (622) 
-2.57

>  <fname>  (622) 
mobley_9617923

>  <cname>  (622) 
 decan-2-one

>  <dataset>  (622) 
FreeSolv

$$$$
1,3-dichloropropane
     RDKit          3D

 11 10  0  0  0  0  0  0  0  0999 V2000
   -0.1595   -0.1129    0.6213 C   0  0  0  0  0  0  0  0  0  0  0  0
    0.9879    0.8165    0.2315 C   0  0  0  0  0  0  0  0  0  0  0  0
    0.4346    2.1798   -0.7673 Cl  0  0  0  0  0  0  0  0  0  0  0  0
   -0.9083   -0.7601   -0.5415 C   0  0  0  0  0  0  0  0  0  0  0  0
    0.1609   -1.7584   -1.5531 Cl  0  0  0  0  0  0  0  0  0  0  0  0
    0.2397   -0.9015    1.2716 H   0  0  0  0  0  0  0  0  0  0  0  0
   -0.8815    0.4470    1.2291 H   0  0  0  0  0  0  0  0  0  0  0  0
    1.4431    1.2412    1.1317 H   0  0  0  0  0  0  0  0  0  0  0  0
    1.7711    0.2902   -0.3211 H   0  0  0  0  0  0  0  0  0  0  0  0
   -1.3844   -0.0162   -1.1862 H   0  0  0  0  0  0  0  0  0  0  0  0
   -1.6932   -1.4183   -0.1559 H   0  0  0  0  0  0  0  0  0  0  0  0
  1  2  1  0
  2  3  1  0
  1  4  1  0
  4  5  1  0
  1  6  1  0
  1  7  1  0
  2  8  1  0
  2  9  1  0
  4 10  1  0
  4 11  1  0
M  END
>  <_TriposChargeType>  (623) 
USER_CHARGES

>  <solvdG>  (623) 
-1.89

>  <fdG>  (623) 
-0.42

>  <fname>  (623) 
mobley_9624458

>  <cname>  (623) 
 1,3-dichloropropane

>  <dataset>  (623) 
FreeSolv

$$$$
2-ethoxyethanol
     RDKit          3D

 16 15  0  0  0  0  0  0  0  0999 V2000
   -2.0385    0.0804    3.9166 C   0  0  0  0  0  0  0  0  0  0  0  0
   -2.1484    0.3165    2.4253 C   0  0  0  0  0  0  0  0  0  0  0  0
   -0.8526    0.2362    1.8472 O   0  0  0  0  0  0  0  0  0  0  0  0
   -0.8936    0.4506    0.4416 C   0  0  0  0  0  0  0  0  0  0  0  0
    0.5136    0.3528   -0.1152 C   0  0  0  0  0  0  0  0  0  0  0  0
    1.3268    1.3434    0.5020 O   0  0  0  0  0  0  0  0  0  0  0  0
   -3.0209    0.1355    4.3938 H   0  0  0  0  0  0  0  0  0  0  0  0
   -1.6009   -0.9023    4.1206 H   0  0  0  0  0  0  0  0  0  0  0  0
   -1.3798    0.8240    4.3773 H   0  0  0  0  0  0  0  0  0  0  0  0
   -2.5636    1.3083    2.2233 H   0  0  0  0  0  0  0  0  0  0  0  0
   -2.7883   -0.4409    1.9628 H   0  0  0  0  0  0  0  0  0  0  0  0
   -1.5462   -0.3087   -0.0001 H   0  0  0  0  0  0  0  0  0  0  0  0
   -1.3094    1.4458    0.2588 H   0  0  0  0  0  0  0  0  0  0  0  0
    0.5237    0.5283   -1.1955 H   0  0  0  0  0  0  0  0  0  0  0  0
    0.9443   -0.6288    0.1029 H   0  0  0  0  0  0  0  0  0  0  0  0
    2.2154    1.2508    0.1228 H   0  0  0  0  0  0  0  0  0  0  0  0
  1  2  1  0
  2  3  1  0
  3  4  1  0
  4  5  1  0
  5  6  1  0
  1  7  1  0
  1  8  1  0
  1  9  1  0
  2 10  1  0
  2 11  1  0
  4 12  1  0
  4 13  1  0
  5 14  1  0
  5 15  1  0
  6 16  1  0
M  END
>  <_TriposChargeType>  (624) 
USER_CHARGES

>  <solvdG>  (624) 
-6.69

>  <fdG>  (624) 
-4.41

>  <fname>  (624) 
mobley_9626434

>  <cname>  (624) 
 2-ethoxyethanol

>  <dataset>  (624) 
FreeSolv

$$$$
(1S,5R)-5-isopropenyl-2-methyl-cyclohex-2-en-1-ol
     RDKit          3D

 27 27  0  0  0  0  0  0  0  0999 V2000
   -3.7292   -4.7832    2.2230 C   0  0  0  0  0  0  0  0  0  0  0  0
   -2.7245   -3.8104    1.6754 C   0  0  0  0  0  0  0  0  0  0  0  0
   -2.8633   -2.4847    1.8507 C   0  0  0  0  0  0  0  0  0  0  0  0
   -1.9054   -1.4631    1.3105 C   0  0  0  0  0  0  0  0  0  0  0  0
   -0.9333   -2.0298    0.2626 C   0  0  2  0  0  0  0  0  0  0  0  0
   -1.4750   -2.1662   -0.6830 H   0  0  0  0  0  0  0  0  0  0  0  0
   -0.3992   -3.3941    0.7230 C   0  0  0  0  0  0  0  0  0  0  0  0
   -1.5407   -4.3966    0.9428 C   0  0  2  0  0  0  0  0  0  0  0  0
   -1.1372   -5.2509    1.4993 H   0  0  0  0  0  0  0  0  0  0  0  0
   -1.9671   -4.8759   -0.3325 O   0  0  0  0  0  0  0  0  0  0  0  0
    0.1867   -1.0688   -0.0014 C   0  0  0  0  0  0  0  0  0  0  0  0
    1.0234   -0.6700    0.9687 C   0  0  0  0  0  0  0  0  0  0  0  0
    0.3197   -0.5782   -1.4129 C   0  0  0  0  0  0  0  0  0  0  0  0
   -3.4599   -5.0733    3.2421 H   0  0  0  0  0  0  0  0  0  0  0  0
   -3.7671   -5.6813    1.6001 H   0  0  0  0  0  0  0  0  0  0  0  0
   -4.7253   -4.3323    2.2372 H   0  0  0  0  0  0  0  0  0  0  0  0
   -3.7132   -2.0998    2.4084 H   0  0  0  0  0  0  0  0  0  0  0  0
   -2.4810   -0.6449    0.8594 H   0  0  0  0  0  0  0  0  0  0  0  0
   -1.3563   -1.0325    2.1579 H   0  0  0  0  0  0  0  0  0  0  0  0
    0.2998   -3.7911   -0.0245 H   0  0  0  0  0  0  0  0  0  0  0  0
    0.1611   -3.2714    1.6600 H   0  0  0  0  0  0  0  0  0  0  0  0
   -1.1954   -5.2992   -0.7380 H   0  0  0  0  0  0  0  0  0  0  0  0
    1.8307    0.0259    0.7665 H   0  0  0  0  0  0  0  0  0  0  0  0
    0.9204   -1.0300    1.9871 H   0  0  0  0  0  0  0  0  0  0  0  0
   -0.2710    0.3325   -1.5555 H   0  0  0  0  0  0  0  0  0  0  0  0
    1.3669   -0.3525   -1.6390 H   0  0  0  0  0  0  0  0  0  0  0  0
   -0.0269   -1.3183   -2.1420 H   0  0  0  0  0  0  0  0  0  0  0  0
  1  2  1  0
  2  8  1  0
  2  3  2  0
  3  4  1  0
  4  5  1  0
  5  6  1  6
  5  7  1  0
  7  8  1  0
  8  9  1  1
  8 10  1  0
  5 11  1  0
 11 12  2  3
 11 13  1  0
  1 14  1  0
  1 15  1  0
  1 16  1  0
  3 17  1  0
  4 18  1  0
  4 19  1  0
  7 20  1  0
  7 21  1  0
 10 22  1  0
 12 23  1  0
 12 24  1  0
 13 25  1  0
 13 26  1  0
 13 27  1  0
M  END
>  <_TriposChargeType>  (625) 
USER_CHARGES

>  <solvdG>  (625) 
-4.44

>  <fdG>  (625) 
-3.26

>  <fname>  (625) 
mobley_9653690

>  <cname>  (625) 
 (1S,5R)-2-methyl-5-(1-methylethenyl)-2-cyclohexen-1-ol

>  <dataset>  (625) 
FreeSolv

$$$$
2-nitropropane
     RDKit          3D

 13 12  0  0  0  0  0  0  0  0999 V2000
   -0.5137   -0.3855    0.8876 C   0  0  0  0  0  0  0  0  0  0  0  0
    0.4302   -0.4776    2.0742 C   0  0  0  0  0  0  0  0  0  0  0  0
    1.0239    0.8723    2.4396 C   0  0  0  0  0  0  0  0  0  0  0  0
    1.5275   -1.3832    1.7191 N   0  0  0  0  0  4  0  0  0  0  0  0
    2.2374   -1.0799    0.7405 O   0  0  0  0  0  0  0  0  0  0  0  0
    1.6796   -2.4144    2.4025 O   0  0  0  0  0  1  0  0  0  0  0  0
   -0.9302   -1.3671    0.6407 H   0  0  0  0  0  0  0  0  0  0  0  0
   -1.3446    0.2985    1.0928 H   0  0  0  0  0  0  0  0  0  0  0  0
    0.0128   -0.0056    0.0055 H   0  0  0  0  0  0  0  0  0  0  0  0
   -0.0924   -0.9028    2.9373 H   0  0  0  0  0  0  0  0  0  0  0  0
    1.6992    0.7763    3.2965 H   0  0  0  0  0  0  0  0  0  0  0  0
    0.2382    1.5877    2.7020 H   0  0  0  0  0  0  0  0  0  0  0  0
    1.6053    1.2888    1.6096 H   0  0  0  0  0  0  0  0  0  0  0  0
  1  2  1  0
  2  3  1  0
  2  4  1  0
  4  5  2  0
  4  6  1  0
  1  7  1  0
  1  8  1  0
  1  9  1  0
  2 10  1  0
  3 11  1  0
  3 12  1  0
  3 13  1  0
M  CHG  2   4   1   6  -1
M  END
>  <_TriposChargeType>  (626) 
USER_CHARGES

>  <solvdG>  (626) 
-3.13

>  <fdG>  (626) 
-1.74

>  <fname>  (626) 
mobley_967099

>  <cname>  (626) 
 2-nitropropane

>  <dataset>  (626) 
FreeSolv

$$$$
1-nitropropane
     RDKit          3D

 13 12  0  0  0  0  0  0  0  0999 V2000
    1.0421    0.0282   -0.3332 C   0  0  0  0  0  0  0  0  0  0  0  0
    1.4375    1.4520   -0.6967 C   0  0  0  0  0  0  0  0  0  0  0  0
    2.8929    1.5602   -1.1253 C   0  0  0  0  0  0  0  0  0  0  0  0
    3.2020    2.9512   -1.4587 N   0  0  0  0  0  4  0  0  0  0  0  0
    3.6197    3.6915   -0.5451 O   0  0  0  0  0  0  0  0  0  0  0  0
    3.0153    3.3301   -2.6328 O   0  0  0  0  0  1  0  0  0  0  0  0
   -0.0083   -0.0213   -0.0289 H   0  0  0  0  0  0  0  0  0  0  0  0
    1.1765   -0.6320   -1.1957 H   0  0  0  0  0  0  0  0  0  0  0  0
    1.6564   -0.3592    0.4856 H   0  0  0  0  0  0  0  0  0  0  0  0
    1.2731    2.0973    0.1737 H   0  0  0  0  0  0  0  0  0  0  0  0
    0.7834    1.8130   -1.4987 H   0  0  0  0  0  0  0  0  0  0  0  0
    3.5561    1.2542   -0.3107 H   0  0  0  0  0  0  0  0  0  0  0  0
    3.1047    0.9357   -1.9985 H   0  0  0  0  0  0  0  0  0  0  0  0
  1  2  1  0
  2  3  1  0
  3  4  1  0
  4  5  2  0
  4  6  1  0
  1  7  1  0
  1  8  1  0
  1  9  1  0
  2 10  1  0
  2 11  1  0
  3 12  1  0
  3 13  1  0
M  CHG  2   4   1   6  -1
M  END
>  <_TriposChargeType>  (627) 
USER_CHARGES

>  <solvdG>  (627) 
-3.34

>  <fdG>  (627) 
-1.63

>  <fname>  (627) 
mobley_9671033

>  <cname>  (627) 
 1-nitropropane

>  <dataset>  (627) 
FreeSolv

$$$$
2-methylthiophene
     RDKit          3D

 12 12  0  0  0  0  0  0  0  0999 V2000
   -1.8295   -2.2094   -0.4535 C   0  0  0  0  0  0  0  0  0  0  0  0
   -1.3504   -1.0945   -1.2990 C   0  0  0  0  0  0  0  0  0  0  0  0
   -0.4682   -0.0882   -0.9718 C   0  0  0  0  0  0  0  0  0  0  0  0
   -0.2528    0.8087   -2.0577 C   0  0  0  0  0  0  0  0  0  0  0  0
   -0.9783    0.4538   -3.1737 C   0  0  0  0  0  0  0  0  0  0  0  0
   -1.9146   -0.9556   -2.9098 S   0  0  0  0  0  0  0  0  0  0  0  0
   -1.1678   -3.0740   -0.5638 H   0  0  0  0  0  0  0  0  0  0  0  0
   -1.8564   -1.9166    0.6013 H   0  0  0  0  0  0  0  0  0  0  0  0
   -2.8464   -2.5036   -0.7339 H   0  0  0  0  0  0  0  0  0  0  0  0
    0.0016    0.0052   -0.0008 H   0  0  0  0  0  0  0  0  0  0  0  0
    0.4002    1.6709   -2.0228 H   0  0  0  0  0  0  0  0  0  0  0  0
   -1.0031    0.9544   -4.1313 H   0  0  0  0  0  0  0  0  0  0  0  0
  1  2  1  0
  2  6  1  0
  2  3  2  0
  3  4  1  0
  4  5  2  0
  5  6  1  0
  1  7  1  0
  1  8  1  0
  1  9  1  0
  3 10  1  0
  4 11  1  0
  5 12  1  0
M  END
>  <_TriposChargeType>  (628) 
USER_CHARGES

>  <solvdG>  (628) 
-1.38

>  <fdG>  (628) 
-0.3

>  <fname>  (628) 
mobley_9705941

>  <cname>  (628) 
 2-methylthiophene

>  <dataset>  (628) 
FreeSolv

$$$$
1-chloro-2-phenyl-benzene
     RDKit          3D

 22 23  0  0  0  0  0  0  0  0999 V2000
    1.8851   -1.0363   -0.1124 C   0  0  0  0  0  0  0  0  0  0  0  0
    2.9210   -1.6309    0.6081 C   0  0  0  0  0  0  0  0  0  0  0  0
    2.8783   -1.6520    2.0022 C   0  0  0  0  0  0  0  0  0  0  0  0
    1.7997   -1.0786    2.6757 C   0  0  0  0  0  0  0  0  0  0  0  0
    0.7638   -0.4841    1.9551 C   0  0  0  0  0  0  0  0  0  0  0  0
    0.8066   -0.4630    0.5610 C   0  0  0  0  0  0  0  0  0  0  0  0
    1.7549   -1.1005    4.1216 C   0  0  0  0  0  0  0  0  0  0  0  0
    1.1406   -2.1868    4.7449 C   0  0  0  0  0  0  0  0  0  0  0  0
    1.0759   -2.2471    6.1370 C   0  0  0  0  0  0  0  0  0  0  0  0
    1.6254   -1.2211    6.9058 C   0  0  0  0  0  0  0  0  0  0  0  0
    2.2396   -0.1348    6.2825 C   0  0  0  0  0  0  0  0  0  0  0  0
    2.3043   -0.0745    4.8904 C   0  0  0  0  0  0  0  0  0  0  0  0
    3.0775    1.2956    4.1717 Cl  0  0  0  0  0  0  0  0  0  0  0  0
    1.9174   -1.0212   -1.1979 H   0  0  0  0  0  0  0  0  0  0  0  0
    3.7605   -2.0787    0.0844 H   0  0  0  0  0  0  0  0  0  0  0  0
    3.6927   -2.1196    2.5504 H   0  0  0  0  0  0  0  0  0  0  0  0
   -0.0840   -0.0332    2.4655 H   0  0  0  0  0  0  0  0  0  0  0  0
   -0.0009   -0.0015    0.0001 H   0  0  0  0  0  0  0  0  0  0  0  0
    0.7069   -2.9957    4.1615 H   0  0  0  0  0  0  0  0  0  0  0  0
    0.5977   -3.0928    6.6225 H   0  0  0  0  0  0  0  0  0  0  0  0
    1.5749   -1.2682    7.9897 H   0  0  0  0  0  0  0  0  0  0  0  0
    2.6626    0.6560    6.8969 H   0  0  0  0  0  0  0  0  0  0  0  0
  1  6  2  0
  1  2  1  0
  2  3  2  0
  3  4  1  0
  4  5  2  0
  5  6  1  0
  4  7  1  0
  7 12  1  0
  7  8  2  0
  8  9  1  0
  9 10  2  0
 10 11  1  0
 11 12  2  0
 12 13  1  0
  1 14  1  0
  2 15  1  0
  3 16  1  0
  5 17  1  0
  6 18  1  0
  8 19  1  0
  9 20  1  0
 10 21  1  0
 11 22  1  0
M  END
>  <_TriposChargeType>  (629) 
USER_CHARGES

>  <solvdG>  (629) 
-2.69

>  <fdG>  (629) 
-2.51

>  <fname>  (629) 
mobley_9717937

>  <cname>  (629) 
 1-chloro-2-phenyl-benzene

>  <dataset>  (629) 
FreeSolv

$$$$
cyclohepta-1,3,5-triene
     RDKit          3D

 15 15  0  0  0  0  0  0  0  0999 V2000
    0.5614    1.5769    0.2583 C   0  0  0  0  0  0  0  0  0  0  0  0
    1.5396    0.4464    0.1718 C   0  0  0  0  0  0  0  0  0  0  0  0
    1.3583   -0.8473   -0.1189 C   0  0  0  0  0  0  0  0  0  0  0  0
    0.1445   -1.5187   -0.4994 C   0  0  0  0  0  0  0  0  0  0  0  0
   -1.1162   -1.0896   -0.3789 C   0  0  0  0  0  0  0  0  0  0  0  0
   -1.5893    0.1560    0.1627 C   0  0  0  0  0  0  0  0  0  0  0  0
   -0.8983    1.2763    0.4044 C   0  0  0  0  0  0  0  0  0  0  0  0
    0.7033    2.2359   -0.6062 H   0  0  0  0  0  0  0  0  0  0  0  0
    0.8459    2.1649    1.1414 H   0  0  0  0  0  0  0  0  0  0  0  0
    2.5678    0.7448    0.3795 H   0  0  0  0  0  0  0  0  0  0  0  0
    2.2393   -1.4875   -0.1212 H   0  0  0  0  0  0  0  0  0  0  0  0
    0.2977   -2.5085   -0.9267 H   0  0  0  0  0  0  0  0  0  0  0  0
   -1.9068   -1.7570   -0.7182 H   0  0  0  0  0  0  0  0  0  0  0  0
   -2.6623    0.1814    0.3458 H   0  0  0  0  0  0  0  0  0  0  0  0
   -1.4821    2.1232    0.7670 H   0  0  0  0  0  0  0  0  0  0  0  0
  1  7  1  0
  1  2  1  0
  2  3  2  0
  3  4  1  0
  4  5  2  0
  5  6  1  0
  6  7  2  0
  1  8  1  0
  1  9  1  0
  2 10  1  0
  3 11  1  0
  4 12  1  0
  5 13  1  0
  6 14  1  0
  7 15  1  0
M  END
>  <_TriposChargeType>  (630) 
USER_CHARGES

>  <solvdG>  (630) 
-0.99

>  <fdG>  (630) 
-0.1

>  <fname>  (630) 
mobley_9729792

>  <cname>  (630) 
 cyclohepta-1,3,5-triene

>  <dataset>  (630) 
FreeSolv

$$$$
butan-1-amine
     RDKit          3D

 16 15  0  0  0  0  0  0  0  0999 V2000
   -0.5039    0.9672   -0.1069 C   0  0  0  0  0  0  0  0  0  0  0  0
   -1.0392    1.4313    1.2387 C   0  0  0  0  0  0  0  0  0  0  0  0
   -1.8134    2.7450    1.1091 C   0  0  0  0  0  0  0  0  0  0  0  0
   -2.3629    3.2356    2.4445 C   0  0  0  0  0  0  0  0  0  0  0  0
   -3.0889    4.4689    2.3187 N   0  0  0  0  0  0  0  0  0  0  0  0
    0.0484    0.0274   -0.0063 H   0  0  0  0  0  0  0  0  0  0  0  0
   -1.3293    0.8030   -0.8068 H   0  0  0  0  0  0  0  0  0  0  0  0
    0.1664    1.7153   -0.5420 H   0  0  0  0  0  0  0  0  0  0  0  0
   -1.6921    0.6541    1.6527 H   0  0  0  0  0  0  0  0  0  0  0  0
   -0.1991    1.5530    1.9317 H   0  0  0  0  0  0  0  0  0  0  0  0
   -1.1638    3.5127    0.6707 H   0  0  0  0  0  0  0  0  0  0  0  0
   -2.6533    2.6000    0.4188 H   0  0  0  0  0  0  0  0  0  0  0  0
   -1.5597    3.3916    3.1716 H   0  0  0  0  0  0  0  0  0  0  0  0
   -3.0572    2.4968    2.8573 H   0  0  0  0  0  0  0  0  0  0  0  0
   -4.0564    4.4445    2.0359 H   0  0  0  0  0  0  0  0  0  0  0  0
   -2.5820    5.3406    2.3133 H   0  0  0  0  0  0  0  0  0  0  0  0
  1  2  1  0
  2  3  1  0
  3  4  1  0
  4  5  1  0
  1  6  1  0
  1  7  1  0
  1  8  1  0
  2  9  1  0
  2 10  1  0
  3 11  1  0
  3 12  1  0
  4 13  1  0
  4 14  1  0
  5 15  1  0
  5 16  1  0
M  END
>  <_TriposChargeType>  (631) 
USER_CHARGES

>  <solvdG>  (631) 
-4.24

>  <fdG>  (631) 
-2.96

>  <fname>  (631) 
mobley_9733743

>  <cname>  (631) 
 butan-1-amine

>  <dataset>  (631) 
FreeSolv

$$$$
2,6-dichlorobenzonitrile
     RDKit          3D

 13 13  0  0  0  0  0  0  0  0999 V2000
    1.8851   -1.0363   -0.1124 C   0  0  0  0  0  0  0  0  0  0  0  0
    2.9210   -1.6309    0.6081 C   0  0  0  0  0  0  0  0  0  0  0  0
    2.8783   -1.6520    2.0022 C   0  0  0  0  0  0  0  0  0  0  0  0
    1.7997   -1.0786    2.6757 C   0  0  0  0  0  0  0  0  0  0  0  0
    0.7638   -0.4841    1.9551 C   0  0  0  0  0  0  0  0  0  0  0  0
    0.8066   -0.4630    0.5610 C   0  0  0  0  0  0  0  0  0  0  0  0
   -0.6017    0.2437    2.7306 Cl  0  0  0  0  0  0  0  0  0  0  0  0
    1.7565   -1.0993    4.1111 C   0  0  0  0  0  0  0  0  0  0  0  0
    1.7218   -1.1160    5.2651 N   0  0  0  0  0  0  0  0  0  0  0  0
    4.1943   -2.4046    2.8378 Cl  0  0  0  0  0  0  0  0  0  0  0  0
    1.9182   -1.0205   -1.1977 H   0  0  0  0  0  0  0  0  0  0  0  0
    3.7541   -2.0724    0.0668 H   0  0  0  0  0  0  0  0  0  0  0  0
    0.0082   -0.0037   -0.0166 H   0  0  0  0  0  0  0  0  0  0  0  0
  1  6  2  0
  1  2  1  0
  2  3  2  0
  3  4  1  0
  4  5  2  0
  5  6  1  0
  5  7  1  0
  4  8  1  0
  8  9  3  0
  3 10  1  0
  1 11  1  0
  2 12  1  0
  6 13  1  0
M  END
>  <_TriposChargeType>  (632) 
USER_CHARGES

>  <solvdG>  (632) 
-4.71

>  <fdG>  (632) 
-3.32

>  <fname>  (632) 
mobley_9740891

>  <cname>  (632) 
 dichlobenil

>  <dataset>  (632) 
FreeSolv

$$$$
[(1S)-1-methyl-3-nitrooxy-propyl] nitrate
     RDKit          3D

 20 19  0  0  0  0  0  0  0  0999 V2000
    0.4755    0.8174   -0.5531 C   0  0  0  0  0  0  0  0  0  0  0  0
    0.5699    0.4916   -2.0374 C   0  0  1  0  0  0  0  0  0  0  0  0
    1.0115    1.3445   -2.5644 H   0  0  0  0  0  0  0  0  0  0  0  0
    1.4087   -0.7635   -2.2846 C   0  0  0  0  0  0  0  0  0  0  0  0
    1.5161   -1.1079   -3.7659 C   0  0  0  0  0  0  0  0  0  0  0  0
    2.3073   -2.2802   -3.9072 O   0  0  0  0  0  0  0  0  0  0  0  0
    2.4739   -2.6944   -5.2579 N   0  0  0  0  0  4  0  0  0  0  0  0
    1.9327   -2.0159   -6.1340 O   0  0  0  0  0  0  0  0  0  0  0  0
    3.1609   -3.7109   -5.3657 O   0  0  0  0  0  1  0  0  0  0  0  0
   -0.7469    0.3091   -2.5505 O   0  0  0  0  0  0  0  0  0  0  0  0
   -1.4196    1.5299   -2.8274 N   0  0  0  0  0  4  0  0  0  0  0  0
   -0.8155    2.5813   -2.6029 O   0  0  0  0  0  0  0  0  0  0  0  0
   -2.5561    1.3575   -3.2697 O   0  0  0  0  0  1  0  0  0  0  0  0
    0.0379   -0.0129    0.0092 H   0  0  0  0  0  0  0  0  0  0  0  0
   -0.1318    1.7136   -0.3845 H   0  0  0  0  0  0  0  0  0  0  0  0
    1.4697    1.0302   -0.1457 H   0  0  0  0  0  0  0  0  0  0  0  0
    2.4159   -0.6350   -1.8689 H   0  0  0  0  0  0  0  0  0  0  0  0
    0.9694   -1.6230   -1.7617 H   0  0  0  0  0  0  0  0  0  0  0  0
    0.5306   -1.3026   -4.2001 H   0  0  0  0  0  0  0  0  0  0  0  0
    1.9966   -0.2958   -4.3206 H   0  0  0  0  0  0  0  0  0  0  0  0
  1  2  1  0
  2  3  1  6
  2  4  1  0
  4  5  1  0
  5  6  1  0
  6  7  1  0
  7  8  2  0
  7  9  1  0
  2 10  1  0
 10 11  1  0
 11 12  2  0
 11 13  1  0
  1 14  1  0
  1 15  1  0
  1 16  1  0
  4 17  1  0
  4 18  1  0
  5 19  1  0
  5 20  1  0
M  CHG  4   7   1   9  -1  11   1  13  -1
M  END
>  <_TriposChargeType>  (633) 
USER_CHARGES

>  <solvdG>  (633) 
-4.29

>  <fdG>  (633) 
-4.94

>  <fname>  (633) 
mobley_9741965

>  <cname>  (633) 
 1,3-bis-(nitrooxy)butane

>  <dataset>  (633) 
FreeSolv

$$$$
2-methoxy-2-methyl-propane
     RDKit          3D

 18 17  0  0  0  0  0  0  0  0999 V2000
   -0.4645   -0.0646    0.9894 C   0  0  0  0  0  0  0  0  0  0  0  0
    0.5609   -0.3988    2.0719 C   0  0  0  0  0  0  0  0  0  0  0  0
    1.6273    0.6910    2.1567 C   0  0  0  0  0  0  0  0  0  0  0  0
    1.2036   -1.7604    1.8118 C   0  0  0  0  0  0  0  0  0  0  0  0
   -0.1082   -0.4451    3.3327 O   0  0  0  0  0  0  0  0  0  0  0  0
   -1.1266   -1.4328    3.3392 C   0  0  0  0  0  0  0  0  0  0  0  0
   -1.2317   -0.8445    0.9253 H   0  0  0  0  0  0  0  0  0  0  0  0
   -0.9578    0.8935    1.1830 H   0  0  0  0  0  0  0  0  0  0  0  0
    0.0103   -0.0162    0.0027 H   0  0  0  0  0  0  0  0  0  0  0  0
    2.3651    0.4554    2.9322 H   0  0  0  0  0  0  0  0  0  0  0  0
    1.1816    1.6524    2.4367 H   0  0  0  0  0  0  0  0  0  0  0  0
    2.1531    0.8168    1.2047 H   0  0  0  0  0  0  0  0  0  0  0  0
    1.9391   -2.0003    2.5882 H   0  0  0  0  0  0  0  0  0  0  0  0
    0.4566   -2.5604    1.7845 H   0  0  0  0  0  0  0  0  0  0  0  0
    1.7476   -1.7592    0.8603 H   0  0  0  0  0  0  0  0  0  0  0  0
   -1.6164   -1.4415    4.3149 H   0  0  0  0  0  0  0  0  0  0  0  0
   -0.6855   -2.4095    3.1298 H   0  0  0  0  0  0  0  0  0  0  0  0
   -1.8583   -1.1899    2.5664 H   0  0  0  0  0  0  0  0  0  0  0  0
  1  2  1  0
  2  3  1  0
  2  4  1  0
  2  5  1  0
  5  6  1  0
  1  7  1  0
  1  8  1  0
  1  9  1  0
  3 10  1  0
  3 11  1  0
  3 12  1  0
  4 13  1  0
  4 14  1  0
  4 15  1  0
  6 16  1  0
  6 17  1  0
  6 18  1  0
M  END
>  <_TriposChargeType>  (634) 
USER_CHARGES

>  <solvdG>  (634) 
-2.21

>  <fdG>  (634) 
-0.69

>  <fname>  (634) 
mobley_9794857

>  <cname>  (634) 
 2-methoxy-2-methyl-propane

>  <dataset>  (634) 
FreeSolv

$$$$
1,2,3,4,6,7,8,9-octachlorodibenzo-p-dioxin
     RDKit          3D

 22 24  0  0  0  0  0  0  0  0999 V2000
   -2.7266   -1.9051    0.6889 C   0  0  0  0  0  0  0  0  0  0  0  0
   -3.5799   -0.9097    1.1626 C   0  0  0  0  0  0  0  0  0  0  0  0
   -3.1487    0.4152    1.2196 C   0  0  0  0  0  0  0  0  0  0  0  0
   -1.8584    0.7400    0.8000 C   0  0  0  0  0  0  0  0  0  0  0  0
   -1.0039   -0.2568    0.3257 C   0  0  0  0  0  0  0  0  0  0  0  0
   -1.4367   -1.5819    0.2693 C   0  0  0  0  0  0  0  0  0  0  0  0
   -0.4028   -2.8502   -0.3162 Cl  0  0  0  0  0  0  0  0  0  0  0  0
    0.6077    0.1472   -0.1988 Cl  0  0  0  0  0  0  0  0  0  0  0  0
   -1.3195    2.3954    0.8706 Cl  0  0  0  0  0  0  0  0  0  0  0  0
   -4.2410    1.6281    1.8158 Cl  0  0  0  0  0  0  0  0  0  0  0  0
   -4.8561   -1.1828    1.5855 O   0  0  0  0  0  0  0  0  0  0  0  0
   -5.2389   -2.4982    1.5123 C   0  0  0  0  0  0  0  0  0  0  0  0
   -4.3856   -3.4936    1.0385 C   0  0  0  0  0  0  0  0  0  0  0  0
   -4.8168   -4.8184    0.9815 C   0  0  0  0  0  0  0  0  0  0  0  0
   -6.1071   -5.1433    1.4010 C   0  0  0  0  0  0  0  0  0  0  0  0
   -6.9616   -4.1465    1.8755 C   0  0  0  0  0  0  0  0  0  0  0  0
   -6.5287   -2.8214    1.9320 C   0  0  0  0  0  0  0  0  0  0  0  0
   -7.5636   -1.5529    2.5161 Cl  0  0  0  0  0  0  0  0  0  0  0  0
   -8.5732   -4.5507    2.3999 Cl  0  0  0  0  0  0  0  0  0  0  0  0
   -6.6460   -6.7986    1.3301 Cl  0  0  0  0  0  0  0  0  0  0  0  0
   -3.7244   -6.0317    0.3851 Cl  0  0  0  0  0  0  0  0  0  0  0  0
   -3.1093   -3.2205    0.6157 O   0  0  0  0  0  0  0  0  0  0  0  0
  1  6  2  0
  1 22  1  0
  1  2  1  0
  2  3  2  0
  3  4  1  0
  4  5  2  0
  5  6  1  0
  6  7  1  0
  5  8  1  0
  4  9  1  0
  3 10  1  0
  2 11  1  0
 11 12  1  0
 12 17  2  0
 12 13  1  0
 13 14  2  0
 14 15  1  0
 15 16  2  0
 16 17  1  0
 17 18  1  0
 16 19  1  0
 15 20  1  0
 14 21  1  0
 13 22  1  0
M  END
>  <_TriposChargeType>  (635) 
USER_CHARGES

>  <solvdG>  (635) 
-4.53

>  <fdG>  (635) 
-1.15

>  <fname>  (635) 
mobley_9821936

>  <cname>  (635) 
 1,2,3,4,6,7,8,9-octachlorodibenzo-p-dioxin

>  <dataset>  (635) 
FreeSolv

$$$$
2-methylbutan-2-ol
     RDKit          3D

 18 17  0  0  0  0  0  0  0  0999 V2000
   -0.6454    0.3354    0.8029 C   0  0  0  0  0  0  0  0  0  0  0  0
   -1.8896    1.0450    0.2809 C   0  0  0  0  0  0  0  0  0  0  0  0
   -2.8429    0.1483   -0.5334 C   0  0  0  0  0  0  0  0  0  0  0  0
   -2.1689   -0.4444   -1.7717 C   0  0  0  0  0  0  0  0  0  0  0  0
   -4.0814    0.9472   -0.9518 C   0  0  0  0  0  0  0  0  0  0  0  0
   -3.2783   -0.9433    0.2800 O   0  0  0  0  0  0  0  0  0  0  0  0
   -0.0247    1.0390    1.3675 H   0  0  0  0  0  0  0  0  0  0  0  0
   -0.0351   -0.0571   -0.0154 H   0  0  0  0  0  0  0  0  0  0  0  0
   -0.9063   -0.4913    1.4706 H   0  0  0  0  0  0  0  0  0  0  0  0
   -1.5798    1.9073   -0.3223 H   0  0  0  0  0  0  0  0  0  0  0  0
   -2.4272    1.4407    1.1525 H   0  0  0  0  0  0  0  0  0  0  0  0
   -2.8566   -1.0786   -2.3402 H   0  0  0  0  0  0  0  0  0  0  0  0
   -1.7843    0.3393   -2.4328 H   0  0  0  0  0  0  0  0  0  0  0  0
   -1.2989   -1.0484   -1.4878 H   0  0  0  0  0  0  0  0  0  0  0  0
   -4.7785    0.3350   -1.5331 H   0  0  0  0  0  0  0  0  0  0  0  0
   -4.6091    1.3378   -0.0743 H   0  0  0  0  0  0  0  0  0  0  0  0
   -3.8000    1.8185   -1.5544 H   0  0  0  0  0  0  0  0  0  0  0  0
   -3.7333   -0.5517    1.0402 H   0  0  0  0  0  0  0  0  0  0  0  0
  1  2  1  0
  2  3  1  0
  3  4  1  0
  3  5  1  0
  3  6  1  0
  1  7  1  0
  1  8  1  0
  1  9  1  0
  2 10  1  0
  2 11  1  0
  4 12  1  0
  4 13  1  0
  4 14  1  0
  5 15  1  0
  5 16  1  0
  5 17  1  0
  6 18  1  0
M  END
>  <_TriposChargeType>  (636) 
USER_CHARGES

>  <solvdG>  (636) 
-4.43

>  <fdG>  (636) 
-2.93

>  <fname>  (636) 
mobley_9838013

>  <cname>  (636) 
 2-methylbutan-2-ol

>  <dataset>  (636) 
FreeSolv

$$$$
(3R)-3-methylhexane
     RDKit          3D

 23 22  0  0  0  0  0  0  0  0999 V2000
    0.0168    0.6233   -0.8539 C   0  0  0  0  0  0  0  0  0  0  0  0
    0.5356   -0.1292   -2.0709 C   0  0  0  0  0  0  0  0  0  0  0  0
    1.9784   -0.5962   -1.8601 C   0  0  0  0  0  0  0  0  0  0  0  0
    2.5977   -1.3718   -3.0415 C   0  0  2  0  0  0  0  0  0  0  0  0
    3.6214   -1.6353   -2.7416 H   0  0  0  0  0  0  0  0  0  0  0  0
    2.7132   -0.4920   -4.2908 C   0  0  0  0  0  0  0  0  0  0  0  0
    1.8671   -2.6769   -3.4092 C   0  0  0  0  0  0  0  0  0  0  0  0
    1.8195   -3.6913   -2.2756 C   0  0  0  0  0  0  0  0  0  0  0  0
   -1.0147    0.9556   -1.0084 H   0  0  0  0  0  0  0  0  0  0  0  0
    0.6343    1.5024   -0.6435 H   0  0  0  0  0  0  0  0  0  0  0  0
    0.0365   -0.0243    0.0283 H   0  0  0  0  0  0  0  0  0  0  0  0
   -0.1199   -0.9860   -2.2583 H   0  0  0  0  0  0  0  0  0  0  0  0
    0.4702    0.5305   -2.9424 H   0  0  0  0  0  0  0  0  0  0  0  0
    2.6075    0.2728   -1.6314 H   0  0  0  0  0  0  0  0  0  0  0  0
    2.0180   -1.2331   -0.9664 H   0  0  0  0  0  0  0  0  0  0  0  0
    3.1535   -1.0506   -5.1232 H   0  0  0  0  0  0  0  0  0  0  0  0
    1.7385   -0.1106   -4.6111 H   0  0  0  0  0  0  0  0  0  0  0  0
    3.3580    0.3716   -4.0940 H   0  0  0  0  0  0  0  0  0  0  0  0
    2.3247   -3.1406   -4.2907 H   0  0  0  0  0  0  0  0  0  0  0  0
    0.8345   -2.4353   -3.6917 H   0  0  0  0  0  0  0  0  0  0  0  0
    1.2941   -4.6032   -2.5734 H   0  0  0  0  0  0  0  0  0  0  0  0
    1.2867   -3.2693   -1.4174 H   0  0  0  0  0  0  0  0  0  0  0  0
    2.8282   -3.9620   -1.9479 H   0  0  0  0  0  0  0  0  0  0  0  0
  1  2  1  0
  2  3  1  0
  3  4  1  0
  4  5  1  1
  4  6  1  0
  4  7  1  0
  7  8  1  0
  1  9  1  0
  1 10  1  0
  1 11  1  0
  2 12  1  0
  2 13  1  0
  3 14  1  0
  3 15  1  0
  6 16  1  0
  6 17  1  0
  6 18  1  0
  7 19  1  0
  7 20  1  0
  8 21  1  0
  8 22  1  0
  8 23  1  0
M  END
>  <_TriposChargeType>  (637) 
USER_CHARGES

>  <solvdG>  (637) 
2.71

>  <fdG>  (637) 
2.81

>  <fname>  (637) 
mobley_9883303

>  <cname>  (637) 
 3-methylhexane

>  <dataset>  (637) 
FreeSolv

$$$$
(2Z)-3,7-dimethylocta-2,6-dien-1-ol
     RDKit          3D

 29 28  0  0  0  0  0  0  0  0999 V2000
   -6.1485   -0.6681    5.1834 C   0  0  0  0  0  0  0  0  0  0  0  0
   -5.0693   -1.0547    4.2073 C   0  0  0  0  0  0  0  0  0  0  0  0
   -4.9014   -0.3570    3.0681 C   0  0  0  0  0  0  0  0  0  0  0  0
   -3.8947   -0.5912    1.9759 C   0  0  0  0  0  0  0  0  0  0  0  0
   -2.9673    0.6120    1.7607 C   0  0  0  0  0  0  0  0  0  0  0  0
   -1.9422    0.4040    0.6655 C   0  0  0  0  0  0  0  0  0  0  0  0
   -0.7127   -0.1152    0.8503 C   0  0  0  0  0  0  0  0  0  0  0  0
   -0.0965   -0.5886    2.1282 C   0  0  0  0  0  0  0  0  0  0  0  0
    1.0762    0.1752    2.3760 O   0  0  0  0  0  0  0  0  0  0  0  0
   -2.3697    0.8589   -0.7066 C   0  0  0  0  0  0  0  0  0  0  0  0
   -4.2400   -2.2315    4.6362 C   0  0  0  0  0  0  0  0  0  0  0  0
   -7.0784   -1.1965    4.9487 H   0  0  0  0  0  0  0  0  0  0  0  0
   -5.8825   -0.9091    6.2179 H   0  0  0  0  0  0  0  0  0  0  0  0
   -6.3375    0.4091    5.1320 H   0  0  0  0  0  0  0  0  0  0  0  0
   -5.5668    0.4857    2.8831 H   0  0  0  0  0  0  0  0  0  0  0  0
   -3.3117   -1.5025    2.1353 H   0  0  0  0  0  0  0  0  0  0  0  0
   -4.4550   -0.7649    1.0481 H   0  0  0  0  0  0  0  0  0  0  0  0
   -3.5813    1.4832    1.4962 H   0  0  0  0  0  0  0  0  0  0  0  0
   -2.4907    0.8877    2.7079 H   0  0  0  0  0  0  0  0  0  0  0  0
   -0.0732   -0.2369   -0.0233 H   0  0  0  0  0  0  0  0  0  0  0  0
    0.1909   -1.6399    2.0243 H   0  0  0  0  0  0  0  0  0  0  0  0
   -0.7546   -0.4999    2.9942 H   0  0  0  0  0  0  0  0  0  0  0  0
    1.4534   -0.1528    3.2083 H   0  0  0  0  0  0  0  0  0  0  0  0
   -2.0875    1.9051   -0.8638 H   0  0  0  0  0  0  0  0  0  0  0  0
   -3.4540    0.7703   -0.8224 H   0  0  0  0  0  0  0  0  0  0  0  0
   -1.9054    0.2696   -1.5045 H   0  0  0  0  0  0  0  0  0  0  0  0
   -4.6887   -3.1606    4.2696 H   0  0  0  0  0  0  0  0  0  0  0  0
   -3.2108   -2.1978    4.2746 H   0  0  0  0  0  0  0  0  0  0  0  0
   -4.1945   -2.2794    5.7295 H   0  0  0  0  0  0  0  0  0  0  0  0
  1  2  1  0
  2  3  2  3
  3  4  1  0
  4  5  1  0
  5  6  1  0
  6  7  2  0
  7  8  1  0
  8  9  1  0
  6 10  1  0
  2 11  1  0
  1 12  1  0
  1 13  1  0
  1 14  1  0
  3 15  1  0
  4 16  1  0
  4 17  1  0
  5 18  1  0
  5 19  1  0
  7 20  1  0
  8 21  1  0
  8 22  1  0
  9 23  1  0
 10 24  1  0
 10 25  1  0
 10 26  1  0
 11 27  1  0
 11 28  1  0
 11 29  1  0
M  END
>  <_TriposChargeType>  (638) 
USER_CHARGES

>  <solvdG>  (638) 
-4.78

>  <fdG>  (638) 
-2.6

>  <fname>  (638) 
mobley_9897248

>  <cname>  (638) 
 (2Z)-3,7-dimethylocta-2,6-dien-1-ol

>  <dataset>  (638) 
FreeSolv

$$$$
(E)-1,2-dichloroethylene
     RDKit          3D

  6  5  0  0  0  0  0  0  0  0999 V2000
   -0.6314    0.0855   -0.1906 C   0  0  0  0  0  0  0  0  0  0  0  0
    0.6316   -0.0857    0.1906 C   0  0  0  0  0  0  0  0  0  0  0  0
    1.2348    0.5015    1.6820 Cl  0  0  0  0  0  0  0  0  0  0  0  0
   -1.2353   -0.5005   -1.6824 Cl  0  0  0  0  0  0  0  0  0  0  0  0
   -1.3859    0.6000    0.3893 H   0  0  0  0  0  0  0  0  0  0  0  0
    1.3862   -0.6008   -0.3889 H   0  0  0  0  0  0  0  0  0  0  0  0
  1  2  2  0
  2  3  1  0
  1  4  1  0
  1  5  1  0
  2  6  1  0
M  END
>  <_TriposChargeType>  (639) 
USER_CHARGES

>  <solvdG>  (639) 
-0.78

>  <fdG>  (639) 
1.02

>  <fname>  (639) 
mobley_9913368

>  <cname>  (639) 
 (E)-1,2-dichloroethylene

>  <dataset>  (639) 
FreeSolv

$$$$
1-ethyl-4-methyl-benzene
     RDKit          3D

 21 21  0  0  0  0  0  0  0  0999 V2000
    1.2661   -2.2403   -2.2082 C   0  0  0  0  0  0  0  0  0  0  0  0
    1.9305   -1.0133   -1.6029 C   0  0  0  0  0  0  0  0  0  0  0  0
    1.8851   -1.0363   -0.1124 C   0  0  0  0  0  0  0  0  0  0  0  0
    2.9210   -1.6309    0.6081 C   0  0  0  0  0  0  0  0  0  0  0  0
    2.8783   -1.6520    2.0022 C   0  0  0  0  0  0  0  0  0  0  0  0
    1.7997   -1.0786    2.6757 C   0  0  0  0  0  0  0  0  0  0  0  0
    0.7638   -0.4841    1.9551 C   0  0  0  0  0  0  0  0  0  0  0  0
    0.8066   -0.4630    0.5610 C   0  0  0  0  0  0  0  0  0  0  0  0
    1.7529   -1.1036    4.1660 C   0  0  0  0  0  0  0  0  0  0  0  0
    1.3046   -2.2139   -3.3025 H   0  0  0  0  0  0  0  0  0  0  0  0
    0.2150   -2.2885   -1.9070 H   0  0  0  0  0  0  0  0  0  0  0  0
    1.7566   -3.1619   -1.8768 H   0  0  0  0  0  0  0  0  0  0  0  0
    1.4391   -0.1054   -1.9733 H   0  0  0  0  0  0  0  0  0  0  0  0
    2.9726   -0.9522   -1.9397 H   0  0  0  0  0  0  0  0  0  0  0  0
    3.7650   -2.0800    0.0916 H   0  0  0  0  0  0  0  0  0  0  0  0
    3.6891   -2.1183    2.5555 H   0  0  0  0  0  0  0  0  0  0  0  0
   -0.0809   -0.0359    2.4717 H   0  0  0  0  0  0  0  0  0  0  0  0
   -0.0052    0.0022    0.0080 H   0  0  0  0  0  0  0  0  0  0  0  0
    2.2382   -0.2106    4.5785 H   0  0  0  0  0  0  0  0  0  0  0  0
    0.7185   -1.1377    4.5318 H   0  0  0  0  0  0  0  0  0  0  0  0
    2.2604   -1.9914    4.5658 H   0  0  0  0  0  0  0  0  0  0  0  0
  1  2  1  0
  2  3  1  0
  3  8  2  0
  3  4  1  0
  4  5  2  0
  5  6  1  0
  6  7  2  0
  7  8  1  0
  6  9  1  0
  1 10  1  0
  1 11  1  0
  1 12  1  0
  2 13  1  0
  2 14  1  0
  4 15  1  0
  5 16  1  0
  7 17  1  0
  8 18  1  0
  9 19  1  0
  9 20  1  0
  9 21  1  0
M  END
>  <_TriposChargeType>  (640) 
USER_CHARGES

>  <solvdG>  (640) 
-0.95

>  <fdG>  (640) 
-0.57

>  <fname>  (640) 
mobley_9942801

>  <cname>  (640) 
 1-ethyl-4-methyl-benzene

>  <dataset>  (640) 
FreeSolv

$$$$
bromoethane
     RDKit          3D

  8  7  0  0  0  0  0  0  0  0999 V2000
    0.0125   -0.7247    0.8210 C   0  0  0  0  0  0  0  0  0  0  0  0
    1.1399   -0.4427    1.7865 C   0  0  0  0  0  0  0  0  0  0  0  0
    2.8461   -0.5455    0.8594 Br  0  0  0  0  0  0  0  0  0  0  0  0
   -0.9510   -0.6683    1.3371 H   0  0  0  0  0  0  0  0  0  0  0  0
   -0.0004    0.0004    0.0004 H   0  0  0  0  0  0  0  0  0  0  0  0
    0.1035   -1.7245    0.3831 H   0  0  0  0  0  0  0  0  0  0  0  0
    1.1722   -1.1779    2.5944 H   0  0  0  0  0  0  0  0  0  0  0  0
    1.0673    0.5629    2.2082 H   0  0  0  0  0  0  0  0  0  0  0  0
  1  2  1  0
  2  3  1  0
  1  4  1  0
  1  5  1  0
  1  6  1  0
  2  7  1  0
  2  8  1  0
M  END
>  <_TriposChargeType>  (641) 
USER_CHARGES

>  <solvdG>  (641) 
-0.74

>  <fdG>  (641) 
0.49

>  <fname>  (641) 
mobley_994483

>  <cname>  (641) 
 bromoethane

>  <dataset>  (641) 
FreeSolv

$$$$
2-isopropylsulfanylpropane
     RDKit          3D

 21 20  0  0  0  0  0  0  0  0999 V2000
    0.8900    0.3284    2.7307 C   0  0  0  0  0  0  0  0  0  0  0  0
    1.2990    1.0057    1.4282 C   0  0  0  0  0  0  0  0  0  0  0  0
    0.9729    0.1338    0.2216 C   0  0  0  0  0  0  0  0  0  0  0  0
    0.4464    2.6115    1.2755 S   0  0  0  0  0  0  0  0  0  0  0  0
    1.5251    3.5751    2.3572 C   0  0  0  0  0  0  0  0  0  0  0  0
    2.7976    3.9846    1.6124 C   0  0  0  0  0  0  0  0  0  0  0  0
    0.7865    4.8070    2.8851 C   0  0  0  0  0  0  0  0  0  0  0  0
    1.1321    0.9697    3.5855 H   0  0  0  0  0  0  0  0  0  0  0  0
   -0.1889    0.1396    2.7604 H   0  0  0  0  0  0  0  0  0  0  0  0
    1.4106   -0.6249    2.8768 H   0  0  0  0  0  0  0  0  0  0  0  0
    2.3760    1.2036    1.4485 H   0  0  0  0  0  0  0  0  0  0  0  0
    1.2738    0.6370   -0.7041 H   0  0  0  0  0  0  0  0  0  0  0  0
   -0.1026   -0.0630    0.1507 H   0  0  0  0  0  0  0  0  0  0  0  0
    1.4971   -0.8280    0.2586 H   0  0  0  0  0  0  0  0  0  0  0  0
    1.8109    2.9468    3.2148 H   0  0  0  0  0  0  0  0  0  0  0  0
    3.4597    4.5702    2.2599 H   0  0  0  0  0  0  0  0  0  0  0  0
    3.3601    3.1041    1.2823 H   0  0  0  0  0  0  0  0  0  0  0  0
    2.5707    4.5980    0.7329 H   0  0  0  0  0  0  0  0  0  0  0  0
    1.4322    5.3994    3.5430 H   0  0  0  0  0  0  0  0  0  0  0  0
   -0.0946    4.5169    3.4683 H   0  0  0  0  0  0  0  0  0  0  0  0
    0.4591    5.4614    2.0692 H   0  0  0  0  0  0  0  0  0  0  0  0
  1  2  1  0
  2  3  1  0
  2  4  1  0
  4  5  1  0
  5  6  1  0
  5  7  1  0
  1  8  1  0
  1  9  1  0
  1 10  1  0
  2 11  1  0
  3 12  1  0
  3 13  1  0
  3 14  1  0
  5 15  1  0
  6 16  1  0
  6 17  1  0
  6 18  1  0
  7 19  1  0
  7 20  1  0
  7 21  1  0
M  END
>  <_TriposChargeType>  (642) 
USER_CHARGES

>  <solvdG>  (642) 
-1.21

>  <fdG>  (642) 
0.14

>  <fname>  (642) 
mobley_9974966

>  <cname>  (642) 
 2-isopropylsulfanylpropane

>  <dataset>  (642) 
FreeSolv

$$$$
(2R)-1,1,1-trifluoropropan-2-ol
     RDKit          3D

 12 11  0  0  0  0  0  0  0  0999 V2000
   -0.7763    0.5918    0.8349 C   0  0  0  0  0  0  0  0  0  0  0  0
   -0.2372   -0.1769   -0.3621 C   0  0  2  0  0  0  0  0  0  0  0  0
   -0.9249   -0.9878   -0.6244 H   0  0  0  0  0  0  0  0  0  0  0  0
    1.1381   -0.7496   -0.0933 C   0  0  0  0  0  0  0  0  0  0  0  0
    1.1124   -1.6013    0.9554 F   0  0  0  0  0  0  0  0  0  0  0  0
    1.5904   -1.4392   -1.1640 F   0  0  0  0  0  0  0  0  0  0  0  0
    2.0364    0.2193    0.1835 F   0  0  0  0  0  0  0  0  0  0  0  0
   -0.1452    0.6998   -1.4804 O   0  0  0  0  0  0  0  0  0  0  0  0
   -0.1017    1.4088    1.1138 H   0  0  0  0  0  0  0  0  0  0  0  0
   -0.9132   -0.0628    1.7007 H   0  0  0  0  0  0  0  0  0  0  0  0
   -1.7404    1.0513    0.5914 H   0  0  0  0  0  0  0  0  0  0  0  0
   -1.0427    1.0253   -1.6523 H   0  0  0  0  0  0  0  0  0  0  0  0
  1  2  1  0
  2  3  1  6
  2  4  1  0
  4  5  1  0
  4  6  1  0
  4  7  1  0
  2  8  1  0
  1  9  1  0
  1 10  1  0
  1 11  1  0
  8 12  1  0
M  END
>  <_TriposChargeType>  (643) 
USER_CHARGES

>  <solvdG>  (643) 
-4.2

>  <fdG>  (643) 
-3.49

>  <fname>  (643) 
mobley_9979854

>  <cname>  (643) 
 111-trifluoropropan-2-ol

>  <dataset>  (643) 
FreeSolv

$$$$
